* NGSPICE file created from gf180mcu_fd_io__bi_t.ext - technology: gf180mcuC

.subckt gf180mcu_fd_io__bi_t_extracted A CS DVDD DVSS IE OE PAD PD PDRV0 PDRV1 PU SL VDD VSS Y
X0 GF_NI_BI_T_BASE_0.comp018green_inpath_cms_smt_0.comp018green_sigbuf_1.ZB GF_NI_BI_T_BASE_0.comp018green_inpath_cms_smt_0.comp018green_sigbuf_1.Z DVSS DVSS nfet_06v0 ad=0.39p pd=2.02u as=0.39p ps=2.02u w=1.5u l=0.7u
X1 GF_NI_BI_T_BASE_0.comp018green_inpath_cms_smt_0.comp018green_sigbuf_2.Z a_12068_66100# DVDD DVDD pfet_06v0 ad=0.78p pd=3.52u as=0.78p ps=3.52u w=3u l=0.7u
X2 GF_NI_BI_T_BASE_0.ndrive_x_<0> a_782_42688# DVSS DVSS nfet_06v0 ad=1.56p pd=6.52u as=2.64p ps=12.9u w=6u l=0.7u
X3 DVSS a_7790_42688# GF_NI_BI_T_BASE_0.ndrive_x_<2> DVSS nfet_06v0 ad=1.56p pd=6.52u as=1.56p ps=6.52u w=6u l=0.7u
X4 VSS GF_NI_BI_T_BASE_0.comp018green_inpath_cms_smt_0.comp018green_in_drv_0.Z Y VSS nfet_06v0 ad=0.66p pd=3.88u as=0.39p ps=2.02u w=1.5u l=0.7u
X5 VDD GF_NI_BI_T_BASE_0.comp018green_inpath_cms_smt_0.comp018green_in_logic_pupd_0.comp018green_std_xor2_0.Z GF_NI_BI_T_BASE_0.comp018green_inpath_cms_smt_0.comp018green_sigbuf_0.A VDD pfet_06v0 ad=1.32p pd=6.88u as=0.78p ps=3.52u w=3u l=0.7u
X6 VDD OE a_1260_51889# VDD pfet_06v0 ad=1.32p pd=6.88u as=0.78p ps=3.52u w=3u l=0.7u
D0 PD VDD diode_pd2nw_06v0 pj=4p area=1p
X7 VSS CS a_6824_66100# VSS nfet_06v0 ad=0.66p pd=3.88u as=0.66p ps=3.88u w=1.5u l=0.7u
X8 DVDD GF_NI_BI_T_BASE_0.comp018green_out_predrv_0.SL GF_NI_BI_T_BASE_0.comp018green_out_predrv_0.SLB DVDD pfet_06v0 ad=1.32p pd=6.88u as=0.78p ps=3.52u w=3u l=0.7u
D1 VSS PDRV0 diode_pd2nw_06v0 pj=1.92p area=0.23p
X9 GF_NI_BI_T_BASE_0.comp018green_inpath_cms_smt_0.comp018green_sigbuf_1.Z a_3891_66144# DVDD DVDD pfet_06v0 ad=0.78p pd=3.52u as=1.32p ps=6.88u w=3u l=0.7u
X10 a_8850_42732# GF_NI_BI_T_BASE_0.comp018green_out_predrv_3.ENB DVSS DVSS nfet_06v0 ad=1.56p pd=6.52u as=1.56p ps=6.52u w=6u l=0.7u
X11 VSS a_9536_64061# GF_NI_BI_T_BASE_0.comp018green_inpath_cms_smt_0.comp018green_in_drv_0.Z VSS nfet_06v0 ad=0.55p pd=3.38u as=0.325p ps=1.77u w=1.25u l=0.7u
X12 PAD GF_NI_BI_T_BASE_0.ndrive_x_<3> DVSS DVSS nfet_06v0_dss d_sab=3.78u s_sab=0.28u ad=0.144n pd=83.6u as=10.6p ps=76.6u w=38u l=1.15u  
X13 DVDD GF_NI_BI_T_BASE_0.pdrive_x_<3> PAD DVDD pfet_06v0_dss d_sab=0.28u s_sab=2.78u ad=11.2p pd=80.6u as=0.111n ps=85.6u w=40u l=0.7u  
X14 GF_NI_BI_T_BASE_0.comp018green_inpath_cms_smt_0.comp018green_in_drv_0.Z a_9536_64061# VSS VSS nfet_06v0 ad=0.325p pd=1.77u as=0.55p ps=3.38u w=1.25u l=0.7u
X15 a_2591_61071# a_2311_53829# DVDD ppolyf_u r_width=0.8u r_length=35.7u
X16 GF_NI_BI_T_BASE_0.comp018green_out_predrv_0.ENB GF_NI_BI_T_BASE_0.comp018green_out_predrv_0.EN DVDD DVDD pfet_06v0 ad=2.64p pd=12.9u as=1.56p ps=6.52u w=6u l=0.7u
X17 a_4286_42688# GF_NI_BI_T_BASE_0.comp018green_out_predrv_3.EN a_5346_42732# DVSS nfet_06v0 ad=1.56p pd=6.52u as=2.64p ps=12.9u w=6u l=0.7u
X18 DVDD a_1842_42732# GF_NI_BI_T_BASE_0.pdrive_y_<0> DVDD pfet_06v0 ad=3.12p pd=12.5u as=3.12p ps=12.5u w=12u l=0.7u
X19 DVSS GF_NI_BI_T_BASE_0.comp018green_out_predrv_0.A a_1842_42732# DVSS nfet_06v0 ad=1.56p pd=6.52u as=2.64p ps=12.9u w=6u l=0.7u
D2 CS VDD diode_pd2nw_06v0 pj=4p area=1p
X20 a_5463_64256# GF_NI_BI_T_BASE_0.comp018green_esd_cdm_0.IP_IN GF_NI_BI_T_BASE_0.comp018green_inpath_cms_smt_0.comp018green_in_drv_0.A DVSS nfet_06v0 ad=0.78p pd=3.52u as=0.78p ps=3.52u w=3u l=0.7u
X21 GF_NI_BI_T_BASE_0.comp018green_out_predrv_0.SLB GF_NI_BI_T_BASE_0.comp018green_out_predrv_0.SL DVSS DVSS nfet_06v0 ad=0.39p pd=2.02u as=0.39p ps=2.02u w=1.5u l=0.7u
X22 DVDD a_5346_42732# GF_NI_BI_T_BASE_0.ndrive_Y_<1> DVDD pfet_06v0 ad=3.12p pd=12.5u as=3.12p ps=12.5u w=12u l=0.7u
X23 GF_NI_BI_T_BASE_0.comp018green_inpath_cms_smt_0.comp018green_sigbuf_3.Z a_6824_66100# DVSS DVSS nfet_06v0 ad=0.39p pd=2.02u as=0.39p ps=2.02u w=1.5u l=0.7u
X24 GF_NI_BI_T_BASE_0.comp018green_inpath_cms_smt_0.comp018green_sigbuf_0.ZB GF_NI_BI_T_BASE_0.comp018green_inpath_cms_smt_0.comp018green_sigbuf_0.Z DVSS DVSS nfet_06v0 ad=0.39p pd=2.02u as=0.39p ps=2.02u w=1.5u l=0.7u
X25 GF_NI_BI_T_BASE_0.comp018green_inpath_cms_smt_0.comp018green_in_drv_0.A GF_NI_BI_T_BASE_0.comp018green_esd_cdm_0.IP_IN a_5463_64256# DVSS nfet_06v0 ad=0.78p pd=3.52u as=1.32p ps=6.88u w=3u l=0.7u
X26 GF_NI_BI_T_BASE_0.ndrive_x_<3> GF_NI_BI_T_BASE_0.comp018green_out_predrv_0.SL GF_NI_BI_T_BASE_0.ndrive_Y_<3> DVDD pfet_06v0 ad=3.12p pd=12.5u as=5.28p ps=24.9u w=12u l=0.7u
X27 GF_NI_BI_T_BASE_0.pdrive_y_<2> GF_NI_BI_T_BASE_0.comp018green_out_predrv_0.SLB GF_NI_BI_T_BASE_0.pdrive_x_<2> DVSS nfet_06v0 ad=1.56p pd=6.52u as=2.64p ps=12.9u w=6u l=0.7u
X28 Y GF_NI_BI_T_BASE_0.comp018green_inpath_cms_smt_0.comp018green_in_drv_0.Z VSS VSS nfet_06v0 ad=0.39p pd=2.02u as=0.39p ps=2.02u w=1.5u l=0.7u
X29 Y GF_NI_BI_T_BASE_0.comp018green_inpath_cms_smt_0.comp018green_in_drv_0.Z VDD VDD pfet_06v0 ad=0.91p pd=4.02u as=0.91p ps=4.02u w=3.5u l=0.7u
X30 GF_NI_BI_T_BASE_0.comp018green_out_sigbuf_oe_2.ENB GF_NI_BI_T_BASE_0.comp018green_out_sigbuf_oe_2.EN DVSS DVSS nfet_06v0 ad=1.32p pd=6.88u as=0.78p ps=3.52u w=3u l=0.7u
X31 GF_NI_BI_T_BASE_0.ndrive_Y_<1> GF_NI_BI_T_BASE_0.comp018green_out_predrv_0.SL GF_NI_BI_T_BASE_0.ndrive_x_<1> DVDD pfet_06v0 ad=3.12p pd=12.5u as=3.12p ps=12.5u w=12u l=0.7u
X32 DVSS GF_NI_BI_T_BASE_0.comp018green_inpath_cms_smt_0.comp018green_sigbuf_3.Z GF_NI_BI_T_BASE_0.comp018green_inpath_cms_smt_0.comp018green_sigbuf_3.ZB DVSS nfet_06v0 ad=0.39p pd=2.02u as=0.39p ps=2.02u w=1.5u l=0.7u
X33 DVSS a_9135_66144# GF_NI_BI_T_BASE_0.comp018green_inpath_cms_smt_0.comp018green_sigbuf_0.Z DVSS nfet_06v0 ad=0.39p pd=2.02u as=0.39p ps=2.02u w=1.5u l=0.7u
X34 GF_NI_BI_T_BASE_0.comp018green_inpath_cms_smt_0.comp018green_in_drv_0.A GF_NI_BI_T_BASE_0.comp018green_inpath_cms_smt_0.comp018green_sigbuf_1.Z DVDD DVDD pfet_06v0 ad=0.52p pd=2.52u as=0.88p ps=4.88u w=2u l=0.7u
X35 GF_NI_BI_T_BASE_0.comp018green_inpath_cms_smt_0.comp018green_in_drv_0.A GF_NI_BI_T_BASE_0.comp018green_esd_cdm_0.IP_IN a_5575_63014# DVDD pfet_06v0 ad=0.559p pd=2.67u as=0.946p ps=5.18u w=2.15u l=0.7u
X36 a_7790_42688# GF_NI_BI_T_BASE_0.comp018green_out_predrv_3.ENB a_8850_42732# DVDD pfet_06v0 ad=3.12p pd=12.5u as=5.28p ps=24.9u w=12u l=0.7u
X37 GF_NI_BI_T_BASE_0.pdrive_y_<1> GF_NI_BI_T_BASE_0.comp018green_out_predrv_0.SLB GF_NI_BI_T_BASE_0.pdrive_x_<1> DVSS nfet_06v0 ad=1.56p pd=6.52u as=2.64p ps=12.9u w=6u l=0.7u
X38 a_11294_42688# GF_NI_BI_T_BASE_0.comp018green_out_predrv_0.A DVSS DVSS nfet_06v0 ad=2.64p pd=12.9u as=1.56p ps=6.52u w=6u l=0.7u
X39 GF_NI_BI_T_BASE_0.ndrive_x_<1> DVSS GF_NI_BI_T_BASE_0.ndrive_Y_<1> DVDD pfet_06v0 ad=0.528p pd=3.28u as=0.528p ps=3.28u w=1.2u l=0.7u
X40 VSS PDRV1 a_5502_50201# VSS nfet_06v0 ad=1.32p pd=6.88u as=0.78p ps=3.52u w=3u l=0.7u
X41 GF_NI_BI_T_BASE_0.comp018green_out_predrv_0.SL a_11617_50285# DVDD DVDD pfet_06v0 ad=0.78p pd=3.52u as=1.32p ps=6.88u w=3u l=0.7u
X42 GF_NI_BI_T_BASE_0.ndrive_y_<2> a_7790_42688# DVDD DVDD pfet_06v0 ad=3.12p pd=12.5u as=3.12p ps=12.5u w=12u l=0.7u
X43 DVDD a_782_42688# GF_NI_BI_T_BASE_0.ndrive_y_<0> DVDD pfet_06v0 ad=3.12p pd=12.5u as=5.28p ps=24.9u w=12u l=0.7u
X44 a_12000_56686# PD GF_NI_BI_T_BASE_0.comp018green_inpath_cms_smt_0.comp018green_sigbuf_0.A VSS nfet_06v0 ad=0.78p pd=3.52u as=1.32p ps=6.88u w=3u l=0.7u
X45 a_5502_50201# OE a_3961_50157# VSS nfet_06v0 ad=0.78p pd=3.52u as=1.32p ps=6.88u w=3u l=0.7u
X46 a_9536_64061# GF_NI_BI_T_BASE_0.comp018green_inpath_cms_smt_0.comp018green_in_drv_0.A DVDD DVDD pfet_06v0 ad=0.88p pd=4.88u as=0.88p ps=4.88u w=2u l=0.7u
X47 VSS OE a_10720_50201# VSS nfet_06v0 ad=1.32p pd=6.88u as=0.78p ps=3.52u w=3u l=0.7u
X48 a_10720_50201# A a_9197_50157# VSS nfet_06v0 ad=0.78p pd=3.52u as=1.32p ps=6.88u w=3u l=0.7u
X49 GF_NI_BI_T_BASE_0.ndrive_x_<2> a_7790_42688# DVSS DVSS nfet_06v0 ad=1.56p pd=6.52u as=2.64p ps=12.9u w=6u l=0.7u
X50 GF_NI_BI_T_BASE_0.comp018green_inpath_cms_smt_0.comp018green_sigbuf_0.A PD VDD VDD pfet_06v0 ad=0.78p pd=3.52u as=1.32p ps=6.88u w=3u l=0.7u
X51 DVDD GF_NI_BI_T_BASE_0.pdrive_x_<2> PAD DVDD pfet_06v0_dss d_sab=0.28u s_sab=2.78u ad=11.2p pd=80.6u as=0.111n ps=85.6u w=40u l=0.7u  
X52 DVSS GF_NI_BI_T_BASE_0.comp018green_inpath_cms_smt_0.comp018green_sigbuf_2.Z GF_NI_BI_T_BASE_0.comp018green_inpath_cms_smt_0.comp018green_sigbuf_2.ZB DVSS nfet_06v0 ad=0.39p pd=2.02u as=0.39p ps=2.02u w=1.5u l=0.7u
X53 GF_NI_BI_T_BASE_0.comp018green_inpath_cms_smt_0.comp018green_sigbuf_2.ZB GF_NI_BI_T_BASE_0.comp018green_inpath_cms_smt_0.comp018green_sigbuf_2.Z DVSS DVSS nfet_06v0 ad=0.39p pd=2.02u as=0.66p ps=3.88u w=1.5u l=0.7u
X54 a_12527_59749# PD VSS VSS nfet_06v0 ad=0.66p pd=3.88u as=0.66p ps=3.88u w=1.5u l=0.7u
X55 GF_NI_BI_T_BASE_0.comp018green_out_predrv_3.EN a_3961_50157# DVDD DVDD pfet_06v0 ad=2.64p pd=12.9u as=1.56p ps=6.52u w=6u l=0.7u
X56 a_782_42688# GF_NI_BI_T_BASE_0.comp018green_out_predrv_0.A DVDD DVDD pfet_06v0 ad=5.28p pd=24.9u as=3.12p ps=12.5u w=12u l=0.7u
X57 a_2031_61071# a_2311_53829# DVDD ppolyf_u r_width=0.8u r_length=35.7u
D3 GF_NI_BI_T_BASE_0.comp018green_esd_cdm_0.IP_IN DVDD diode_pd2nw_06v0 pj=42p area=20p
X58 DVDD a_1260_51889# GF_NI_BI_T_BASE_0.comp018green_out_predrv_0.EN DVDD pfet_06v0 ad=1.56p pd=6.52u as=2.64p ps=12.9u w=6u l=0.7u
X59 DVDD GF_NI_BI_T_BASE_0.comp018green_out_predrv_0.EN a_782_42688# DVDD pfet_06v0 ad=3.12p pd=12.5u as=3.12p ps=12.5u w=12u l=0.7u
X60 DVSS GF_NI_BI_T_BASE_0.comp018green_inpath_cms_smt_0.comp018green_sigbuf_3.Z a_2947_62989# DVSS nfet_06v0 ad=0.88p pd=4.88u as=0.52p ps=2.52u w=2u l=0.7u
X61 PAD GF_NI_BI_T_BASE_0.pdrive_x_<0> DVDD DVDD pfet_06v0_dss d_sab=2.78u s_sab=0.28u ad=0.111n pd=85.6u as=11.2p ps=80.6u w=40u l=0.7u  
X62 GF_NI_BI_T_BASE_0.pdrive_x_<2> a_8850_42732# DVDD DVDD pfet_06v0 ad=3.12p pd=12.5u as=3.12p ps=12.5u w=12u l=0.7u
X63 GF_NI_BI_T_BASE_0.comp018green_inpath_cms_smt_0.comp018green_in_drv_0.A a_2947_62989# a_4157_63027# DVDD pfet_06v0 ad=0.88p pd=4.88u as=0.88p ps=4.88u w=2u l=0.7u
X64 a_1191_61071# GF_NI_BI_T_BASE_0.comp018green_inpath_cms_smt_0.comp018green_sigbuf_0.ZB DVSS DVSS nfet_06v0 ad=0.66p pd=3.88u as=0.66p ps=3.88u w=1.5u l=0.7u
X65 DVSS a_782_42688# GF_NI_BI_T_BASE_0.ndrive_y_<0> DVSS nfet_06v0 ad=1.56p pd=6.52u as=1.56p ps=6.52u w=6u l=0.7u
X66 a_4235_64204# GF_NI_BI_T_BASE_0.comp018green_esd_cdm_0.IP_IN a_5463_64256# DVSS nfet_06v0 ad=0.689p pd=3.17u as=0.689p ps=3.17u w=2.65u l=0.7u
X67 GF_NI_BI_T_BASE_0.ndrive_y_<0> a_782_42688# DVSS DVSS nfet_06v0 ad=1.56p pd=6.52u as=1.56p ps=6.52u w=6u l=0.7u
X68 a_4286_42688# GF_NI_BI_T_BASE_0.comp018green_out_predrv_3.ENB a_5346_42732# DVDD pfet_06v0 ad=5.28p pd=24.9u as=3.12p ps=12.5u w=12u l=0.7u
X69 GF_NI_BI_T_BASE_0.pdrive_x_<1> a_4286_42688# DVDD DVDD pfet_06v0 ad=3.12p pd=12.5u as=5.28p ps=24.9u w=12u l=0.7u
X70 VDD GF_NI_BI_T_BASE_0.comp018green_inpath_cms_smt_0.comp018green_sigbuf_2.A a_12068_66100# VDD pfet_06v0 ad=1.32p pd=6.88u as=1.32p ps=6.88u w=3u l=0.7u
X71 DVDD GF_NI_BI_T_BASE_0.comp018green_out_predrv_0.A a_12354_42732# DVDD pfet_06v0 ad=3.12p pd=12.5u as=5.28p ps=24.9u w=12u l=0.7u
X72 DVSS GF_NI_BI_T_BASE_0.comp018green_inpath_cms_smt_0.comp018green_sigbuf_1.Z a_4235_64204# DVSS nfet_06v0 ad=0.832p pd=3.72u as=0.832p ps=3.72u w=3.2u l=0.7u
X73 DVDD GF_NI_BI_T_BASE_0.comp018green_inpath_cms_smt_0.comp018green_sigbuf_3.Z a_2947_62989# DVDD pfet_06v0 ad=1.76p pd=8.88u as=1.04p ps=4.52u w=4u l=0.7u
X74 DVDD DVSS cap_nmos_06v0 c_width=5u c_length=1.5u
X75 a_4235_64204# GF_NI_BI_T_BASE_0.comp018green_inpath_cms_smt_0.comp018green_sigbuf_1.Z DVSS DVSS nfet_06v0 ad=0.832p pd=3.72u as=0.832p ps=3.72u w=3.2u l=0.7u
X76 DVDD a_7790_42688# GF_NI_BI_T_BASE_0.ndrive_y_<2> DVDD pfet_06v0 ad=3.12p pd=12.5u as=5.28p ps=24.9u w=12u l=0.7u
X77 a_8953_50157# a_9197_50157# DVDD DVDD pfet_06v0 ad=2.64p pd=12.9u as=1.56p ps=6.52u w=6u l=0.7u
X78 a_11617_50285# SL VSS VSS nfet_06v0 ad=0.66p pd=3.88u as=0.66p ps=3.88u w=1.5u l=0.7u
X79 DVSS a_5346_42732# GF_NI_BI_T_BASE_0.ndrive_x_<1> DVSS nfet_06v0 ad=2.64p pd=12.9u as=1.56p ps=6.52u w=6u l=0.7u
X80 a_2591_61071# a_2871_53829# DVDD ppolyf_u r_width=0.8u r_length=35.7u
X81 DVSS GF_NI_BI_T_BASE_0.comp018green_out_predrv_0.A a_8850_42732# DVSS nfet_06v0 ad=1.56p pd=6.52u as=2.64p ps=12.9u w=6u l=0.7u
X82 a_4157_63027# GF_NI_BI_T_BASE_0.comp018green_inpath_cms_smt_0.comp018green_sigbuf_3.Z DVDD DVDD pfet_06v0 ad=0.39p pd=2.02u as=0.66p ps=3.88u w=1.5u l=0.7u
X83 a_12966_56686# GF_NI_BI_T_BASE_0.comp018green_inpath_cms_smt_0.comp018green_in_logic_pupd_0.comp018green_std_xor2_0.Z GF_NI_BI_T_BASE_0.comp018green_inpath_cms_smt_0.comp018green_sigbuf_2.A VSS nfet_06v0 ad=0.78p pd=3.52u as=1.32p ps=6.88u w=3u l=0.7u
D4 IE VDD diode_pd2nw_06v0 pj=4p area=1p
X84 GF_NI_BI_T_BASE_0.comp018green_inpath_cms_smt_0.comp018green_sigbuf_2.A GF_NI_BI_T_BASE_0.comp018green_inpath_cms_smt_0.comp018green_in_logic_pupd_0.comp018green_std_xor2_0.Z VDD VDD pfet_06v0 ad=0.78p pd=3.52u as=1.32p ps=6.88u w=3u l=0.7u
X85 GF_NI_BI_T_BASE_0.ndrive_y_<0> GF_NI_BI_T_BASE_0.comp018green_out_predrv_0.SL GF_NI_BI_T_BASE_0.ndrive_x_<0> DVDD pfet_06v0 ad=5.28p pd=24.9u as=3.12p ps=12.5u w=12u l=0.7u
X86 DVDD GF_NI_BI_T_BASE_0.comp018green_inpath_cms_smt_0.comp018green_sigbuf_1.Z GF_NI_BI_T_BASE_0.comp018green_inpath_cms_smt_0.comp018green_sigbuf_1.ZB DVDD pfet_06v0 ad=1.32p pd=6.88u as=0.78p ps=3.52u w=3u l=0.7u
X87 GF_NI_BI_T_BASE_0.comp018green_inpath_cms_smt_0.comp018green_sigbuf_1.ZB GF_NI_BI_T_BASE_0.comp018green_inpath_cms_smt_0.comp018green_sigbuf_1.Z DVDD DVDD pfet_06v0 ad=0.78p pd=3.52u as=0.78p ps=3.52u w=3u l=0.7u
X88 PAD GF_NI_BI_T_BASE_0.pdrive_y_<0> DVDD DVDD pfet_06v0_dss d_sab=2.78u s_sab=0.28u ad=0.111n pd=85.6u as=11.2p ps=80.6u w=40u l=0.7u  
X89 GF_NI_BI_T_BASE_0.ndrive_x_<0> GF_NI_BI_T_BASE_0.comp018green_out_predrv_0.SL GF_NI_BI_T_BASE_0.ndrive_y_<0> DVDD pfet_06v0 ad=3.12p pd=12.5u as=3.12p ps=12.5u w=12u l=0.7u
X90 DVDD DVSS cap_nmos_06v0 c_width=5u c_length=1.5u
X91 GF_NI_BI_T_BASE_0.pdrive_y_<1> DVDD GF_NI_BI_T_BASE_0.pdrive_x_<1> DVSS nfet_06v0 ad=0.528p pd=3.28u as=0.528p ps=3.28u w=1.2u l=0.7u
X92 a_5463_64256# GF_NI_BI_T_BASE_0.comp018green_esd_cdm_0.IP_IN a_4235_64204# DVSS nfet_06v0 ad=0.689p pd=3.17u as=0.689p ps=3.17u w=2.65u l=0.7u
X93 GF_NI_BI_T_BASE_0.ndrive_y_<0> DVSS GF_NI_BI_T_BASE_0.ndrive_x_<0> DVDD pfet_06v0 ad=0.528p pd=3.28u as=0.528p ps=3.28u w=1.2u l=0.7u
X94 PAD GF_NI_BI_T_BASE_0.ndrive_x_<1> DVSS DVSS nfet_06v0_dss d_sab=3.78u s_sab=0.28u ad=0.144n pd=83.6u as=10.6p ps=76.6u w=38u l=1.15u  
X95 DVSS GF_NI_BI_T_BASE_0.comp018green_out_sigbuf_oe_2.ENB a_11294_42688# DVSS nfet_06v0 ad=1.56p pd=6.52u as=1.56p ps=6.52u w=6u l=0.7u
X96 GF_NI_BI_T_BASE_0.pdrive_x_<0> GF_NI_BI_T_BASE_0.comp018green_out_predrv_0.SLB GF_NI_BI_T_BASE_0.pdrive_y_<0> DVSS nfet_06v0 ad=2.64p pd=12.9u as=1.56p ps=6.52u w=6u l=0.7u
X97 a_5463_64256# GF_NI_BI_T_BASE_0.comp018green_esd_cdm_0.IP_IN GF_NI_BI_T_BASE_0.comp018green_inpath_cms_smt_0.comp018green_in_drv_0.A DVSS nfet_06v0 ad=1.32p pd=6.88u as=0.78p ps=3.52u w=3u l=0.7u
X98 PU a_12527_59749# GF_NI_BI_T_BASE_0.comp018green_inpath_cms_smt_0.comp018green_in_logic_pupd_0.comp018green_std_xor2_0.Z VSS nfet_06v0 ad=0.66p pd=3.88u as=0.66p ps=3.88u w=1.5u l=0.7u
X99 VDD PU a_12715_59749# VDD pfet_06v0 ad=1.32p pd=6.88u as=1.32p ps=6.88u w=3u l=0.7u
X100 GF_NI_BI_T_BASE_0.comp018green_out_sigbuf_oe_2.ENB GF_NI_BI_T_BASE_0.comp018green_out_sigbuf_oe_2.EN DVDD DVDD pfet_06v0 ad=2.64p pd=12.9u as=1.56p ps=6.52u w=6u l=0.7u
X101 DVSS a_3891_66144# GF_NI_BI_T_BASE_0.comp018green_inpath_cms_smt_0.comp018green_sigbuf_1.Z DVSS nfet_06v0 ad=0.39p pd=2.02u as=0.39p ps=2.02u w=1.5u l=0.7u
X102 a_1260_51889# PDRV0 VDD VDD pfet_06v0 ad=0.78p pd=3.52u as=1.32p ps=6.88u w=3u l=0.7u
X103 PAD GF_NI_BI_T_BASE_0.pdrive_x_<2> DVDD DVDD pfet_06v0_dss d_sab=2.78u s_sab=0.28u ad=0.111n pd=85.6u as=11.2p ps=80.6u w=40u l=0.7u  
X104 GF_NI_BI_T_BASE_0.ndrive_x_<3> a_12354_42732# DVSS DVSS nfet_06v0 ad=1.56p pd=6.52u as=1.56p ps=6.52u w=6u l=0.7u
X105 GF_NI_BI_T_BASE_0.ndrive_Y_<1> a_5346_42732# DVDD DVDD pfet_06v0 ad=5.28p pd=24.9u as=3.12p ps=12.5u w=12u l=0.7u
X106 GF_NI_BI_T_BASE_0.comp018green_inpath_cms_smt_0.comp018green_in_drv_0.A GF_NI_BI_T_BASE_0.comp018green_inpath_cms_smt_0.comp018green_sigbuf_1.Z DVDD DVDD pfet_06v0 ad=0.88p pd=4.88u as=0.52p ps=2.52u w=2u l=0.7u
X107 Y GF_NI_BI_T_BASE_0.comp018green_inpath_cms_smt_0.comp018green_in_drv_0.Z VSS VSS nfet_06v0 ad=0.39p pd=2.02u as=0.39p ps=2.02u w=1.5u l=0.7u
X108 GF_NI_BI_T_BASE_0.comp018green_esd_cdm_0.IP_IN a_2871_53829# DVDD ppolyf_u r_width=0.8u r_length=23u
X109 a_7790_42688# GF_NI_BI_T_BASE_0.comp018green_out_predrv_0.A DVDD DVDD pfet_06v0 ad=5.28p pd=24.9u as=3.12p ps=12.5u w=12u l=0.7u
X110 DVSS a_11294_42688# GF_NI_BI_T_BASE_0.pdrive_y_<3> DVSS nfet_06v0 ad=1.56p pd=6.52u as=1.56p ps=6.52u w=6u l=0.7u
X111 a_5575_63014# a_4157_63027# DVSS DVDD pfet_06v0 ad=0.836p pd=4.68u as=0.494p ps=2.42u w=1.9u l=0.7u
X112 PAD GF_NI_BI_T_BASE_0.ndrive_x_<0> DVSS DVSS nfet_06v0_dss d_sab=3.78u s_sab=0.28u ad=0.144n pd=83.6u as=10.6p ps=76.6u w=38u l=1.15u  
X113 DVSS a_12354_42732# GF_NI_BI_T_BASE_0.ndrive_Y_<3> DVSS nfet_06v0 ad=1.56p pd=6.52u as=1.56p ps=6.52u w=6u l=0.7u
X114 DVDD DVSS cap_nmos_06v0 c_width=5u c_length=1.5u
X115 DVDD DVSS cap_nmos_06v0 c_width=5u c_length=1.5u
X116 a_9135_66144# GF_NI_BI_T_BASE_0.comp018green_inpath_cms_smt_0.comp018green_sigbuf_0.A VDD VDD pfet_06v0 ad=1.32p pd=6.88u as=1.32p ps=6.88u w=3u l=0.7u
X117 DVSS a_4157_63027# a_5575_63014# DVDD pfet_06v0 ad=0.494p pd=2.42u as=0.836p ps=4.68u w=1.9u l=0.7u
X118 GF_NI_BI_T_BASE_0.comp018green_out_predrv_0.SLB GF_NI_BI_T_BASE_0.comp018green_out_predrv_0.SL DVDD DVDD pfet_06v0 ad=0.78p pd=3.52u as=0.78p ps=3.52u w=3u l=0.7u
X119 DVDD GF_NI_BI_T_BASE_0.comp018green_out_predrv_3.EN a_7790_42688# DVDD pfet_06v0 ad=3.12p pd=12.5u as=3.12p ps=12.5u w=12u l=0.7u
X120 GF_NI_BI_T_BASE_0.comp018green_inpath_cms_smt_0.comp018green_sigbuf_3.Z a_6824_66100# DVDD DVDD pfet_06v0 ad=0.78p pd=3.52u as=0.78p ps=3.52u w=3u l=0.7u
X121 GF_NI_BI_T_BASE_0.comp018green_inpath_cms_smt_0.comp018green_sigbuf_0.ZB GF_NI_BI_T_BASE_0.comp018green_inpath_cms_smt_0.comp018green_sigbuf_0.Z DVDD DVDD pfet_06v0 ad=0.78p pd=3.52u as=0.78p ps=3.52u w=3u l=0.7u
X122 DVSS a_7790_42688# GF_NI_BI_T_BASE_0.ndrive_y_<2> DVSS nfet_06v0 ad=1.56p pd=6.52u as=1.56p ps=6.52u w=6u l=0.7u
X123 DVDD GF_NI_BI_T_BASE_0.comp018green_inpath_cms_smt_0.comp018green_sigbuf_3.Z GF_NI_BI_T_BASE_0.comp018green_inpath_cms_smt_0.comp018green_sigbuf_3.ZB DVDD pfet_06v0 ad=0.78p pd=3.52u as=0.78p ps=3.52u w=3u l=0.7u
X124 DVDD a_9135_66144# GF_NI_BI_T_BASE_0.comp018green_inpath_cms_smt_0.comp018green_sigbuf_0.Z DVDD pfet_06v0 ad=0.78p pd=3.52u as=0.78p ps=3.52u w=3u l=0.7u
X125 PAD GF_NI_BI_T_BASE_0.pdrive_x_<3> DVDD DVDD pfet_06v0_dss d_sab=2.78u s_sab=0.28u ad=0.111n pd=85.6u as=11.2p ps=80.6u w=40u l=0.7u  
X126 a_3891_66144# IE VSS VSS nfet_06v0 ad=0.66p pd=3.88u as=0.66p ps=3.88u w=1.5u l=0.7u
X127 VDD GF_NI_BI_T_BASE_0.comp018green_inpath_cms_smt_0.comp018green_in_drv_0.Z Y VDD pfet_06v0 ad=0.91p pd=4.02u as=0.91p ps=4.02u w=3.5u l=0.7u
X128 Y GF_NI_BI_T_BASE_0.comp018green_inpath_cms_smt_0.comp018green_in_drv_0.Z VDD VDD pfet_06v0 ad=0.91p pd=4.02u as=1.54p ps=7.88u w=3.5u l=0.7u
D5 VSS OE diode_pd2nw_06v0 pj=1.92p area=0.23p
X129 DVSS a_12068_66100# GF_NI_BI_T_BASE_0.comp018green_inpath_cms_smt_0.comp018green_sigbuf_2.Z DVSS nfet_06v0 ad=0.66p pd=3.88u as=0.39p ps=2.02u w=1.5u l=0.7u
X130 a_1191_61071# a_1191_53829# DVDD ppolyf_u r_width=0.8u r_length=35.7u
X131 GF_NI_BI_T_BASE_0.pdrive_y_<1> a_4286_42688# DVSS DVSS nfet_06v0 ad=1.56p pd=6.52u as=2.64p ps=12.9u w=6u l=0.7u
X132 DVDD a_1842_42732# GF_NI_BI_T_BASE_0.pdrive_x_<0> DVDD pfet_06v0 ad=5.28p pd=24.9u as=3.12p ps=12.5u w=12u l=0.7u
X133 DVDD DVSS cap_nmos_06v0 c_width=5u c_length=1.5u
X134 GF_NI_BI_T_BASE_0.comp018green_inpath_cms_smt_0.comp018green_sigbuf_0.Z a_9135_66144# DVSS DVSS nfet_06v0 ad=0.39p pd=2.02u as=0.66p ps=3.88u w=1.5u l=0.7u
X135 a_1191_61071# GF_NI_BI_T_BASE_0.comp018green_inpath_cms_smt_0.comp018green_sigbuf_2.Z DVDD DVDD pfet_06v0 ad=1.32p pd=6.88u as=1.32p ps=6.88u w=3u l=0.7u
X136 DVDD a_8850_42732# GF_NI_BI_T_BASE_0.pdrive_y_<2> DVDD pfet_06v0 ad=3.12p pd=12.5u as=3.12p ps=12.5u w=12u l=0.7u
X137 DVSS a_2947_62989# a_3430_64204# DVSS nfet_06v0 ad=0.66p pd=3.88u as=0.66p ps=3.88u w=1.5u l=0.7u
X138 DVSS a_8953_50157# GF_NI_BI_T_BASE_0.comp018green_out_predrv_0.A DVSS nfet_06v0 ad=0.78p pd=3.52u as=1.32p ps=6.88u w=3u l=0.7u
X139 DVSS a_1842_42732# GF_NI_BI_T_BASE_0.pdrive_y_<0> DVSS nfet_06v0 ad=2.64p pd=12.9u as=1.56p ps=6.52u w=6u l=0.7u
X140 GF_NI_BI_T_BASE_0.pdrive_y_<0> a_1842_42732# DVSS DVSS nfet_06v0 ad=1.56p pd=6.52u as=1.56p ps=6.52u w=6u l=0.7u
X141 a_5346_42732# GF_NI_BI_T_BASE_0.comp018green_out_predrv_3.EN DVDD DVDD pfet_06v0 ad=3.12p pd=12.5u as=3.12p ps=12.5u w=12u l=0.7u
X142 DVDD GF_NI_BI_T_BASE_0.comp018green_inpath_cms_smt_0.comp018green_sigbuf_2.Z GF_NI_BI_T_BASE_0.comp018green_inpath_cms_smt_0.comp018green_sigbuf_2.ZB DVDD pfet_06v0 ad=0.78p pd=3.52u as=0.78p ps=3.52u w=3u l=0.7u
X143 GF_NI_BI_T_BASE_0.comp018green_inpath_cms_smt_0.comp018green_in_drv_0.A GF_NI_BI_T_BASE_0.comp018green_inpath_cms_smt_0.comp018green_sigbuf_3.Z a_4157_63027# DVSS nfet_06v0 ad=0.66p pd=3.88u as=0.66p ps=3.88u w=1.5u l=0.7u
X144 a_782_42688# GF_NI_BI_T_BASE_0.comp018green_out_predrv_0.EN a_1842_42732# DVSS nfet_06v0 ad=2.64p pd=12.9u as=1.56p ps=6.52u w=6u l=0.7u
X145 DVDD a_12354_42732# GF_NI_BI_T_BASE_0.ndrive_Y_<3> DVDD pfet_06v0 ad=3.12p pd=12.5u as=3.12p ps=12.5u w=12u l=0.7u
X146 DVDD a_4286_42688# GF_NI_BI_T_BASE_0.pdrive_y_<1> DVDD pfet_06v0 ad=5.28p pd=24.9u as=3.12p ps=12.5u w=12u l=0.7u
X147 VDD CS a_6824_66100# VDD pfet_06v0 ad=1.32p pd=6.88u as=1.32p ps=6.88u w=3u l=0.7u
X148 DVSS GF_NI_BI_T_BASE_0.comp018green_inpath_cms_smt_0.comp018green_sigbuf_0.Z GF_NI_BI_T_BASE_0.comp018green_inpath_cms_smt_0.comp018green_sigbuf_0.ZB DVSS nfet_06v0 ad=0.66p pd=3.88u as=0.39p ps=2.02u w=1.5u l=0.7u
X149 a_5463_64256# a_3430_64204# DVDD DVSS nfet_06v0 ad=0.572p pd=3.48u as=0.572p ps=3.48u w=1.3u l=0.7u
X150 GF_NI_BI_T_BASE_0.ndrive_Y_<3> GF_NI_BI_T_BASE_0.comp018green_out_predrv_0.SL GF_NI_BI_T_BASE_0.ndrive_x_<3> DVDD pfet_06v0 ad=3.12p pd=12.5u as=3.12p ps=12.5u w=12u l=0.7u
X151 GF_NI_BI_T_BASE_0.comp018green_inpath_cms_smt_0.comp018green_sigbuf_2.ZB GF_NI_BI_T_BASE_0.comp018green_inpath_cms_smt_0.comp018green_sigbuf_2.Z DVDD DVDD pfet_06v0 ad=0.78p pd=3.52u as=1.32p ps=6.88u w=3u l=0.7u
X152 a_6504_51889# OE a_6504_50201# VSS nfet_06v0 ad=1.32p pd=6.88u as=0.78p ps=3.52u w=3u l=0.7u
X153 PAD GF_NI_BI_T_BASE_0.pdrive_y_<2> DVDD DVDD pfet_06v0_dss d_sab=2.78u s_sab=0.28u ad=0.111n pd=85.6u as=11.2p ps=80.6u w=40u l=0.7u  
X154 GF_NI_BI_T_BASE_0.pdrive_x_<3> GF_NI_BI_T_BASE_0.comp018green_out_predrv_0.SLB GF_NI_BI_T_BASE_0.pdrive_y_<3> DVSS nfet_06v0 ad=2.64p pd=12.9u as=1.56p ps=6.52u w=6u l=0.7u
X155 GF_NI_BI_T_BASE_0.ndrive_y_<2> GF_NI_BI_T_BASE_0.comp018green_out_predrv_0.SL GF_NI_BI_T_BASE_0.ndrive_x_<2> DVDD pfet_06v0 ad=5.28p pd=24.9u as=3.12p ps=12.5u w=12u l=0.7u
X156 GF_NI_BI_T_BASE_0.ndrive_x_<3> DVSS GF_NI_BI_T_BASE_0.ndrive_Y_<3> DVDD pfet_06v0 ad=0.528p pd=3.28u as=0.528p ps=3.28u w=1.2u l=0.7u
X157 GF_NI_BI_T_BASE_0.pdrive_y_<3> GF_NI_BI_T_BASE_0.comp018green_out_predrv_0.SLB GF_NI_BI_T_BASE_0.pdrive_x_<3> DVSS nfet_06v0 ad=1.56p pd=6.52u as=2.64p ps=12.9u w=6u l=0.7u
X158 a_4235_64204# GF_NI_BI_T_BASE_0.comp018green_inpath_cms_smt_0.comp018green_sigbuf_1.Z DVSS DVSS nfet_06v0 ad=1.41p pd=7.28u as=0.832p ps=3.72u w=3.2u l=0.7u
X159 a_6504_50201# VDD VSS VSS nfet_06v0 ad=0.78p pd=3.52u as=1.32p ps=6.88u w=3u l=0.7u
X160 DVDD DVSS cap_nmos_06v0 c_width=5u c_length=1.5u
X161 VDD PDRV1 a_3961_50157# VDD pfet_06v0 ad=1.32p pd=6.88u as=0.78p ps=3.52u w=3u l=0.7u
X162 GF_NI_BI_T_BASE_0.comp018green_inpath_cms_smt_0.comp018green_in_logic_pupd_0.comp018green_std_xor2_0.Z a_12527_59749# a_12715_59749# VDD pfet_06v0 ad=1.32p pd=6.88u as=1.32p ps=6.88u w=3u l=0.7u
X163 DVSS GF_NI_BI_T_BASE_0.comp018green_out_predrv_3.EN GF_NI_BI_T_BASE_0.comp018green_out_predrv_3.ENB DVSS nfet_06v0 ad=0.78p pd=3.52u as=1.32p ps=6.88u w=3u l=0.7u
X164 GF_NI_BI_T_BASE_0.pdrive_y_<0> a_1842_42732# DVDD DVDD pfet_06v0 ad=3.12p pd=12.5u as=5.28p ps=24.9u w=12u l=0.7u
X165 a_3961_50157# OE VDD VDD pfet_06v0 ad=0.78p pd=3.52u as=1.32p ps=6.88u w=3u l=0.7u
X166 VDD OE a_9197_50157# VDD pfet_06v0 ad=1.32p pd=6.88u as=0.78p ps=3.52u w=3u l=0.7u
X167 a_9197_50157# A VDD VDD pfet_06v0 ad=0.78p pd=3.52u as=1.32p ps=6.88u w=3u l=0.7u
X168 GF_NI_BI_T_BASE_0.pdrive_x_<0> DVDD GF_NI_BI_T_BASE_0.pdrive_y_<0> DVSS nfet_06v0 ad=0.528p pd=3.28u as=0.528p ps=3.28u w=1.2u l=0.7u
X169 VSS PU a_12966_56686# VSS nfet_06v0 ad=1.32p pd=6.88u as=0.78p ps=3.52u w=3u l=0.7u
X170 a_11617_50285# SL VDD VDD pfet_06v0 ad=1.32p pd=6.88u as=1.32p ps=6.88u w=3u l=0.7u
D6 VSS VDD diode_pd2nw_06v0 pj=1.92p area=0.23p
D7 VSS OE diode_pd2nw_06v0 pj=1.92p area=0.23p
X171 DVSS GF_NI_BI_T_BASE_0.ndrive_Y_<3> PAD DVSS nfet_06v0_dss d_sab=0.28u s_sab=3.78u ad=10.6p pd=76.6u as=0.144n ps=83.6u w=38u l=1.15u  
X172 VDD PU GF_NI_BI_T_BASE_0.comp018green_inpath_cms_smt_0.comp018green_sigbuf_2.A VDD pfet_06v0 ad=1.32p pd=6.88u as=0.78p ps=3.52u w=3u l=0.7u
X173 GF_NI_BI_T_BASE_0.ndrive_Y_<1> a_5346_42732# DVSS DVSS nfet_06v0 ad=1.56p pd=6.52u as=1.56p ps=6.52u w=6u l=0.7u
X174 GF_NI_BI_T_BASE_0.comp018green_inpath_cms_smt_0.comp018green_in_drv_0.Z a_9536_64061# VDD VDD pfet_06v0 ad=0.65p pd=3.02u as=1.1p ps=5.88u w=2.5u l=0.7u
X175 DVDD GF_NI_BI_T_BASE_0.pdrive_y_<3> PAD DVDD pfet_06v0_dss d_sab=0.28u s_sab=2.78u ad=11.2p pd=80.6u as=0.111n ps=85.6u w=40u l=0.7u  
X176 DVDD a_11294_42688# GF_NI_BI_T_BASE_0.pdrive_x_<3> DVDD pfet_06v0 ad=3.12p pd=12.5u as=3.12p ps=12.5u w=12u l=0.7u
X177 a_9536_64061# GF_NI_BI_T_BASE_0.comp018green_inpath_cms_smt_0.comp018green_in_drv_0.A DVSS DVSS nfet_06v0 ad=1.76p pd=8.88u as=1.04p ps=4.52u w=4u l=0.7u
X178 DVSS GF_NI_BI_T_BASE_0.comp018green_out_predrv_3.ENB a_4286_42688# DVSS nfet_06v0 ad=1.56p pd=6.52u as=1.56p ps=6.52u w=6u l=0.7u
X179 a_11294_42688# GF_NI_BI_T_BASE_0.comp018green_out_sigbuf_oe_2.ENB a_12354_42732# DVDD pfet_06v0 ad=5.28p pd=24.9u as=3.12p ps=12.5u w=12u l=0.7u
X180 GF_NI_BI_T_BASE_0.pdrive_y_<1> a_4286_42688# DVDD DVDD pfet_06v0 ad=3.12p pd=12.5u as=3.12p ps=12.5u w=12u l=0.7u
X181 a_5463_64256# GF_NI_BI_T_BASE_0.comp018green_esd_cdm_0.IP_IN a_4235_64204# DVSS nfet_06v0 ad=1.17p pd=6.18u as=0.689p ps=3.17u w=2.65u l=0.7u
X182 GF_NI_BI_T_BASE_0.comp018green_inpath_cms_smt_0.comp018green_in_drv_0.A GF_NI_BI_T_BASE_0.comp018green_esd_cdm_0.IP_IN a_5463_64256# DVSS nfet_06v0 ad=0.78p pd=3.52u as=0.78p ps=3.52u w=3u l=0.7u
X183 GF_NI_BI_T_BASE_0.pdrive_x_<3> a_11294_42688# DVDD DVDD pfet_06v0 ad=3.12p pd=12.5u as=5.28p ps=24.9u w=12u l=0.7u
X184 GF_NI_BI_T_BASE_0.comp018green_esd_cdm_0.IP_IN PAD DVDD ppolyf_u r_width=2.5u r_length=2.8u
X185 a_1260_51889# OE a_1260_50201# VSS nfet_06v0 ad=1.32p pd=6.88u as=0.78p ps=3.52u w=3u l=0.7u
X186 DVSS GF_NI_BI_T_BASE_0.ndrive_y_<0> PAD DVSS nfet_06v0_dss d_sab=0.28u s_sab=3.78u ad=10.6p pd=76.6u as=0.144n ps=83.6u w=38u l=1.15u  
X187 DVSS a_6824_66100# GF_NI_BI_T_BASE_0.comp018green_inpath_cms_smt_0.comp018green_sigbuf_3.Z DVSS nfet_06v0 ad=0.66p pd=3.88u as=0.39p ps=2.02u w=1.5u l=0.7u
X188 DVDD DVSS cap_nmos_06v0 c_width=3u c_length=3u
X189 VDD a_9536_64061# GF_NI_BI_T_BASE_0.comp018green_inpath_cms_smt_0.comp018green_in_drv_0.Z VDD pfet_06v0 ad=1.1p pd=5.88u as=0.65p ps=3.02u w=2.5u l=0.7u
D8 DVSS GF_NI_BI_T_BASE_0.comp018green_esd_cdm_0.IP_IN diode_nd2ps_06v0 pj=42p area=20p
D9 A VDD diode_pd2nw_06v0 pj=4p area=1p
X190 a_782_42688# GF_NI_BI_T_BASE_0.comp018green_out_predrv_0.ENB a_1842_42732# DVDD pfet_06v0 ad=3.12p pd=12.5u as=5.28p ps=24.9u w=12u l=0.7u
X191 DVSS a_8850_42732# GF_NI_BI_T_BASE_0.pdrive_y_<2> DVSS nfet_06v0 ad=2.64p pd=12.9u as=1.56p ps=6.52u w=6u l=0.7u
X192 a_1471_61071# a_1191_53829# DVDD ppolyf_u r_width=0.8u r_length=35.7u
X193 GF_NI_BI_T_BASE_0.ndrive_y_<2> a_7790_42688# DVSS DVSS nfet_06v0 ad=1.56p pd=6.52u as=1.56p ps=6.52u w=6u l=0.7u
X194 DVDD a_3891_66144# GF_NI_BI_T_BASE_0.comp018green_inpath_cms_smt_0.comp018green_sigbuf_1.Z DVDD pfet_06v0 ad=0.78p pd=3.52u as=0.78p ps=3.52u w=3u l=0.7u
X195 GF_NI_BI_T_BASE_0.pdrive_y_<2> a_8850_42732# DVSS DVSS nfet_06v0 ad=1.56p pd=6.52u as=1.56p ps=6.52u w=6u l=0.7u
X196 a_7790_42688# GF_NI_BI_T_BASE_0.comp018green_out_predrv_3.EN a_8850_42732# DVSS nfet_06v0 ad=2.64p pd=12.9u as=1.56p ps=6.52u w=6u l=0.7u
X197 DVDD GF_NI_BI_T_BASE_0.comp018green_inpath_cms_smt_0.comp018green_sigbuf_3.Z a_4157_63027# DVDD pfet_06v0 ad=0.66p pd=3.88u as=0.39p ps=2.02u w=1.5u l=0.7u
X198 a_3430_64204# a_2947_62989# GF_NI_BI_T_BASE_0.comp018green_inpath_cms_smt_0.comp018green_in_drv_0.A DVDD pfet_06v0 ad=0.88p pd=4.88u as=0.88p ps=4.88u w=2u l=0.7u
X199 DVSS a_11617_50285# GF_NI_BI_T_BASE_0.comp018green_out_predrv_0.SL DVSS nfet_06v0 ad=0.39p pd=2.02u as=0.39p ps=2.02u w=1.5u l=0.7u
X200 a_4235_64204# GF_NI_BI_T_BASE_0.comp018green_esd_cdm_0.IP_IN a_5463_64256# DVSS nfet_06v0 ad=0.689p pd=3.17u as=1.17p ps=6.18u w=2.65u l=0.7u
X201 DVDD GF_NI_BI_T_BASE_0.pdrive_x_<1> PAD DVDD pfet_06v0_dss d_sab=0.28u s_sab=2.78u ad=11.2p pd=80.6u as=0.111n ps=85.6u w=40u l=0.7u  
X202 VSS GF_NI_BI_T_BASE_0.comp018green_inpath_cms_smt_0.comp018green_in_drv_0.Z Y VSS nfet_06v0 ad=0.39p pd=2.02u as=0.39p ps=2.02u w=1.5u l=0.7u
X203 VDD GF_NI_BI_T_BASE_0.comp018green_inpath_cms_smt_0.comp018green_in_drv_0.Z Y VDD pfet_06v0 ad=0.91p pd=4.02u as=0.91p ps=4.02u w=3.5u l=0.7u
X204 VSS PU a_12715_59749# VSS nfet_06v0 ad=0.66p pd=3.88u as=0.66p ps=3.88u w=1.5u l=0.7u
X205 DVSS a_6504_51889# GF_NI_BI_T_BASE_0.comp018green_out_sigbuf_oe_2.EN DVSS nfet_06v0 ad=0.78p pd=3.52u as=1.32p ps=6.88u w=3u l=0.7u
X206 GF_NI_BI_T_BASE_0.pdrive_y_<0> GF_NI_BI_T_BASE_0.comp018green_out_predrv_0.SLB GF_NI_BI_T_BASE_0.pdrive_x_<0> DVSS nfet_06v0 ad=1.56p pd=6.52u as=2.64p ps=12.9u w=6u l=0.7u