.subckt gf180mcu_fd_io__asig_5p0_extracted  DVSS DVDD VSS VDD PAD ASIG5V
cDVDD/0 DVDD:16209 vss 7.57208f
cDVDD/1 DVDD:16205 vss 79.679f
cDVDD/2 DVDD:16160 vss 7.5076f
cDVDD/3 DVDD:16156 vss 78.2189f
cDVDD/4 DVDD:16083 vss 20.7374f
cDVDD/5 DVDD:15976 vss 21.0976f
cDVDD/6 DVDD:15870 vss 20.8618f
cDVDD/7 DVDD:15757 vss 0.56211f
cDVDD/8 DVDD:15753 vss 0.581688f
cDVDD/9 DVDD:15743 vss 0.221594f
cDVDD/10 DVDD:15733 vss 0.1849f
cDVDD/11 DVDD:15724 vss 0.526184f
cDVDD/12 DVDD:15714 vss 0.26583f
cDVDD/13 DVDD:15704 vss 0.303359f
cDVDD/14 DVDD:15695 vss 2.74937f
cDVDD/15 DVDD:15691 vss 0.101053f
cDVDD/16 DVDD:15686 vss 0.457353f
cDVDD/17 DVDD:15677 vss 14.1501f
cDVDD/18 DVDD:15468 vss 28.2397f
cDVDD/19 DVDD:15436 vss 202.45f
cDVDD/20 DVDD:15435 vss 5.38399f
cDVDD/21 DVDD:15426 vss 33.6478f
cDVDD/22 DVDD:15416 vss 16.376f
cDVDD/23 DVDD:15412 vss 1.61205f
cDVDD/24 DVDD:15373 vss 23.1914f
cDVDD/25 DVDD:15295 vss 17.1363f
cDVDD/26 DVDD:15004 vss 32.7136f
cDVDD/27 DVDD:14722 vss 26.6155f
cDVDD/28 DVDD:14437 vss 26.6155f
cDVDD/29 DVDD:14155 vss 32.7132f
cDVDD/30 DVDD:14082 vss 16.468f
cDVDD/31 DVDD:14078 vss 1.62203f
cDVDD/32 DVDD:14039 vss 23.4037f
cDVDD/33 DVDD:13961 vss 17.1363f
cDVDD/34 DVDD:13695 vss 1.19876f
cDVDD/35 DVDD:13645 vss 2.93002f
cDVDD/36 DVDD:13626 vss 3.93797f
cDVDD/37 DVDD:13607 vss 3.46682f
cDVDD/38 DVDD:13599 vss 1.17601f
cDVDD/39 DVDD:13432 vss 31.9204f
cDVDD/40 DVDD:13120 vss 36.606f
cDVDD/41 DVDD:12805 vss 30.0321f
cDVDD/42 DVDD:12490 vss 30.0321f
cDVDD/43 DVDD:12069 vss 36.6052f
cDVDD/44 DVDD:11910 vss 6.35693f
cDVDD/45 DVDD:11814 vss 6.45956f
cDVDD/46 DVDD:11718 vss 6.45956f
cDVDD/47 DVDD:11622 vss 6.35822f
cDVDD/48 DVDD:11300 vss 16.3982f
cDVDD/49 DVDD:11280 vss 0.60798f
cDVDD/50 DVDD:11228 vss 2.20998f
cDVDD/51 DVDD:11223 vss 0.246528f
cDVDD/52 DVDD:11183 vss 2.61894f
cDVDD/53 DVDD:11175 vss 0.283361f
cDVDD/54 DVDD:11149 vss 12.246f
cDVDD/55 DVDD:11112 vss 12.276f
cDVDD/56 DVDD:11080 vss 8.21533f
cDVDD/57 DVDD vss 13.7761f
cDVDD/58 DVDD:11060 vss 16.7658f
cDVDD/59 DVDD:11056 vss 10.008f
cDVDD/60 DVDD:10963 vss 16.9075f
cDVDD/61 DVDD:10959 vss 10.0118f
cDVDD/62 DVDD:10866 vss 16.7995f
cDVDD/63 DVDD:10862 vss 10.002f
cDVDD/64 DVDD:10771 vss 0.18771f
cDVDD/65 DVDD:10766 vss 0.314239f
cDVDD/66 DVDD:10761 vss 0.675686f
cDVDD/67 DVDD:10757 vss 0.20557f
cDVDD/68 DVDD:10752 vss 0.205558f
cDVDD/69 DVDD:10727 vss 1.00758f
cDVDD/70 DVDD:10717 vss 1.00236f
cDVDD/71 DVDD:10688 vss 3.72855f
cDVDD/72 DVDD:10683 vss 0.197672f
cDVDD/73 DVDD:10663 vss 2.33273f
cDVDD/74 DVDD:10658 vss 0.193915f
cDVDD/75 D8:neg vss 0.845741f
cDVDD/76 DVDD:9148 vss 0.459122f
cDVDD/77 DVDD:9140 vss 12.6303f
cDVDD/78 DVDD:9133 vss 2.45177f
cDVDD/79 DVDD:9125 vss 2.42021f
cDVDD/80 DVDD:9116 vss 0.607574f
cDVDD/81 X52/X1/X2/X1/C0:pos vss 4.1609f
cDVDD/82 DVDD:9086 vss 0.058323f
cDVDD/83 DVDD:9078 vss 16.9289f
cDVDD/84 DVDD:9071 vss 2.39888f
cDVDD/85 DVDD:9063 vss 2.44184f
cDVDD/86 DVDD:9054 vss 0.0771812f
cDVDD/87 X52/X1/X2/X0/C0:pos vss 4.95726f
cDVDD/88 DVDD:8976 vss 0.058323f
cDVDD/89 DVDD:8968 vss 16.9289f
cDVDD/90 DVDD:8961 vss 2.39888f
cDVDD/91 DVDD:8953 vss 2.44184f
cDVDD/92 DVDD:8944 vss 0.0771812f
cDVDD/93 X52/X1/X1/X1/C0:pos vss 4.95726f
cDVDD/94 DVDD:8906 vss 14.3793f
cDVDD/95 DVDD:8899 vss 2.39421f
cDVDD/96 DVDD:8891 vss 2.42622f
cDVDD/97 X52/X1/X1/X0/C0:pos vss 4.20338f
cDVDD/98 DVDD:8698 vss 0.457738f
cDVDD/99 DVDD:8690 vss 12.4577f
cDVDD/100 DVDD:8683 vss 2.39209f
cDVDD/101 DVDD:8675 vss 2.42019f
cDVDD/102 DVDD:8666 vss 0.605744f
cDVDD/103 X52/X0/X2/X1/C0:pos vss 4.16126f
cDVDD/104 DVDD:8636 vss 0.0568369f
cDVDD/105 DVDD:8628 vss 16.7695f
cDVDD/106 DVDD:8621 vss 2.3988f
cDVDD/107 DVDD:8613 vss 2.44179f
cDVDD/108 DVDD:8604 vss 0.0752146f
cDVDD/109 X52/X0/X2/X0/C0:pos vss 4.95799f
cDVDD/110 DVDD:8526 vss 0.0568369f
cDVDD/111 DVDD:8518 vss 16.7695f
cDVDD/112 DVDD:8511 vss 2.3988f
cDVDD/113 DVDD:8503 vss 2.44179f
cDVDD/114 DVDD:8494 vss 0.0752146f
cDVDD/115 X52/X0/X1/X1/C0:pos vss 4.95799f
cDVDD/116 DVDD:8456 vss 14.4709f
cDVDD/117 DVDD:8449 vss 2.39809f
cDVDD/118 DVDD:8441 vss 2.42619f
cDVDD/119 X52/X0/X1/X0/C0:pos vss 4.20791f
cDVDD/120 DVDD:8104 vss 0.457289f
cDVDD/121 DVDD:8096 vss 12.2929f
cDVDD/122 DVDD:8089 vss 2.39213f
cDVDD/123 DVDD:8081 vss 2.40438f
cDVDD/124 DVDD:8072 vss 0.605149f
cDVDD/125 X51/X1/X2/X1/C0:pos vss 4.16073f
cDVDD/126 DVDD:8042 vss 0.056491f
cDVDD/127 DVDD:8034 vss 16.636f
cDVDD/128 DVDD:8027 vss 2.39888f
cDVDD/129 DVDD:8019 vss 2.43633f
cDVDD/130 DVDD:8010 vss 0.0747568f
cDVDD/131 X51/X1/X2/X0/C0:pos vss 4.95687f
cDVDD/132 DVDD:7932 vss 0.056491f
cDVDD/133 DVDD:7924 vss 16.636f
cDVDD/134 DVDD:7917 vss 2.39888f
cDVDD/135 DVDD:7909 vss 2.43633f
cDVDD/136 DVDD:7900 vss 0.0747568f
cDVDD/137 X51/X1/X1/X1/C0:pos vss 4.95687f
cDVDD/138 DVDD:7862 vss 14.3236f
cDVDD/139 DVDD:7855 vss 2.39813f
cDVDD/140 DVDD:7847 vss 2.41038f
cDVDD/141 X51/X1/X1/X0/C0:pos vss 4.20739f
cDVDD/142 DVDD:7654 vss 0.455658f
cDVDD/143 DVDD:7646 vss 12.541f
cDVDD/144 DVDD:7639 vss 2.39209f
cDVDD/145 DVDD:7631 vss 2.40438f
cDVDD/146 DVDD:7622 vss 0.602991f
cDVDD/147 X51/X0/X2/X1/C0:pos vss 4.16126f
cDVDD/148 DVDD:7592 vss 0.0547567f
cDVDD/149 DVDD:7584 vss 16.8412f
cDVDD/150 DVDD:7577 vss 2.3988f
cDVDD/151 DVDD:7569 vss 2.43633f
cDVDD/152 DVDD:7560 vss 0.0724618f
cDVDD/153 X51/X0/X2/X0/C0:pos vss 4.95798f
cDVDD/154 DVDD:7482 vss 0.0547567f
cDVDD/155 DVDD:7474 vss 16.8412f
cDVDD/156 DVDD:7467 vss 2.3988f
cDVDD/157 DVDD:7459 vss 2.43633f
cDVDD/158 DVDD:7450 vss 0.0724618f
cDVDD/159 X51/X0/X1/X1/C0:pos vss 4.95798f
cDVDD/160 DVDD:7412 vss 14.4612f
cDVDD/161 DVDD:7405 vss 2.39809f
cDVDD/162 DVDD:7397 vss 2.40362f
cDVDD/163 X51/X0/X1/X0/C0:pos vss 4.20829f
cDVDD/164 DVDD:7060 vss 0.459993f
cDVDD/165 DVDD:7052 vss 12.663f
cDVDD/166 DVDD:7045 vss 2.39209f
cDVDD/167 DVDD:7037 vss 2.40979f
cDVDD/168 DVDD:7028 vss 0.608728f
cDVDD/169 X50/X1/X2/X1/C0:pos vss 4.1609f
cDVDD/170 DVDD:6998 vss 0.0590918f
cDVDD/171 DVDD:6990 vss 16.9175f
cDVDD/172 DVDD:6983 vss 2.3988f
cDVDD/173 DVDD:6975 vss 2.43633f
cDVDD/174 DVDD:6966 vss 0.0781985f
cDVDD/175 X50/X1/X2/X0/C0:pos vss 4.95727f
cDVDD/176 DVDD:6888 vss 0.0590918f
cDVDD/177 DVDD:6880 vss 16.9175f
cDVDD/178 DVDD:6873 vss 2.3988f
cDVDD/179 DVDD:6865 vss 2.44121f
cDVDD/180 DVDD:6856 vss 0.0781985f
cDVDD/181 X50/X1/X1/X1/C0:pos vss 4.95727f
cDVDD/182 DVDD:6818 vss 13.9735f
cDVDD/183 DVDD:6811 vss 2.39422f
cDVDD/184 DVDD:6803 vss 2.40359f
cDVDD/185 X50/X1/X1/X0/C0:pos vss 4.19337f
cDVDD/186 DVDD:6610 vss 0.455658f
cDVDD/187 DVDD:6602 vss 12.296f
cDVDD/188 DVDD:6595 vss 2.39752f
cDVDD/189 DVDD:6587 vss 2.40979f
cDVDD/190 DVDD:6578 vss 0.602991f
cDVDD/191 X50/X0/X2/X1/C0:pos vss 4.16054f
cDVDD/192 DVDD:6548 vss 0.0547567f
cDVDD/193 DVDD:6540 vss 16.6032f
cDVDD/194 DVDD:6533 vss 2.40613f
cDVDD/195 DVDD:6525 vss 2.43633f
cDVDD/196 DVDD:6516 vss 0.0724618f
cDVDD/197 X50/X0/X2/X0/C0:pos vss 4.95654f
cDVDD/198 DVDD:6438 vss 0.0547567f
cDVDD/199 DVDD:6430 vss 16.6032f
cDVDD/200 DVDD:6423 vss 2.40429f
cDVDD/201 DVDD:6415 vss 2.44121f
cDVDD/202 DVDD:6406 vss 0.0724618f
cDVDD/203 X50/X0/X1/X1/C0:pos vss 4.95654f
cDVDD/204 DVDD:6368 vss 13.4264f
cDVDD/205 DVDD:6361 vss 2.40119f
cDVDD/206 DVDD:6353 vss 2.40979f
cDVDD/207 X50/X0/X1/X0/C0:pos vss 4.16355f
cDVDD/208 DVDD:6016 vss 0.458129f
cDVDD/209 DVDD:6008 vss 12.5082f
cDVDD/210 DVDD:6001 vss 2.40119f
cDVDD/211 DVDD:5993 vss 2.40979f
cDVDD/212 DVDD:5984 vss 0.606261f
cDVDD/213 X49/X1/X2/X1/C0:pos vss 4.16126f
cDVDD/214 DVDD:5954 vss 0.0572278f
cDVDD/215 DVDD:5946 vss 16.7737f
cDVDD/216 DVDD:5939 vss 2.40613f
cDVDD/217 DVDD:5931 vss 2.43633f
cDVDD/218 DVDD:5922 vss 0.0757318f
cDVDD/219 X49/X1/X2/X0/C0:pos vss 4.95794f
cDVDD/220 DVDD:5844 vss 0.0572278f
cDVDD/221 DVDD:5836 vss 16.7737f
cDVDD/222 DVDD:5829 vss 2.40429f
cDVDD/223 DVDD:5821 vss 2.44121f
cDVDD/224 DVDD:5812 vss 0.0757318f
cDVDD/225 X49/X1/X1/X1/C0:pos vss 4.95794f
cDVDD/226 DVDD:5774 vss 13.7264f
cDVDD/227 DVDD:5767 vss 2.40119f
cDVDD/228 DVDD:5759 vss 2.40979f
cDVDD/229 X49/X1/X1/X0/C0:pos vss 4.18159f
cDVDD/230 DVDD:5566 vss 0.455658f
cDVDD/231 DVDD:5558 vss 12.2936f
cDVDD/232 DVDD:5551 vss 2.40119f
cDVDD/233 DVDD:5543 vss 2.40762f
cDVDD/234 DVDD:5534 vss 0.602991f
cDVDD/235 X49/X0/X2/X1/C0:pos vss 4.16054f
cDVDD/236 DVDD:5504 vss 0.0547567f
cDVDD/237 DVDD:5496 vss 16.5989f
cDVDD/238 DVDD:5489 vss 2.40796f
cDVDD/239 DVDD:5481 vss 2.43417f
cDVDD/240 DVDD:5472 vss 0.0724618f
cDVDD/241 X49/X0/X2/X0/C0:pos vss 4.95654f
cDVDD/242 DVDD:5394 vss 0.0547567f
cDVDD/243 DVDD:5386 vss 16.5989f
cDVDD/244 DVDD:5379 vss 2.40613f
cDVDD/245 DVDD:5371 vss 2.44391f
cDVDD/246 DVDD:5362 vss 0.0724618f
cDVDD/247 X49/X0/X1/X1/C0:pos vss 4.95654f
cDVDD/248 DVDD:5324 vss 13.4269f
cDVDD/249 DVDD:5317 vss 2.40119f
cDVDD/250 DVDD:5309 vss 2.40762f
cDVDD/251 X49/X0/X1/X0/C0:pos vss 4.16349f
cDVDD/252 DVDD:5116 vss 0.391353f
cDVDD/253 DVDD:5108 vss 12.6482f
cDVDD/254 DVDD:5101 vss 2.38986f
cDVDD/255 DVDD:5093 vss 2.42012f
cDVDD/256 DVDD:5084 vss 0.517893f
cDVDD/257 X48/X2/X1/C0:pos vss 4.16124f
cDVDD/258 DVDD:5054 vss 0.0568369f
cDVDD/259 DVDD:5046 vss 16.7651f
cDVDD/260 DVDD:5039 vss 2.39663f
cDVDD/261 DVDD:5031 vss 2.44179f
cDVDD/262 DVDD:5022 vss 0.0752146f
cDVDD/263 X48/X2/X0/C0:pos vss 4.95799f
cDVDD/264 DVDD:4944 vss 0.0568369f
cDVDD/265 DVDD:4936 vss 16.7651f
cDVDD/266 DVDD:4929 vss 2.39663f
cDVDD/267 DVDD:4921 vss 2.44179f
cDVDD/268 DVDD:4912 vss 0.0752146f
cDVDD/269 X48/X1/X1/C0:pos vss 4.95799f
cDVDD/270 DVDD:4874 vss 13.8491f
cDVDD/271 DVDD:4867 vss 2.39465f
cDVDD/272 DVDD:4859 vss 2.42548f
cDVDD/273 X48/X1/X0/C0:pos vss 4.17947f
cDVDD/274 DVDD:4222 vss 0.413659f
cDVDD/275 DVDD:4221 vss 33.0042f
cDVDD/276 DVDD:4212 vss 0.363814f
cDVDD/277 DVDD:4202 vss 0.363814f
cDVDD/278 DVDD:4192 vss 0.363814f
cDVDD/279 DVDD:4182 vss 4.26589f
cDVDD/280 DVDD:4178 vss 7.88579f
cDVDD/281 DVDD:4174 vss 7.89665f
cDVDD/282 DVDD:4170 vss 7.88579f
cDVDD/283 DVDD:4168 vss 3.14615f
cDVDD/284 DVDD:4165 vss 37.1713f
cDVDD/285 DVDD:4133 vss 37.308f
cDVDD/286 DVDD:4101 vss 37.308f
cDVDD/287 DVDD:4069 vss 37.1817f
cDVDD/288 DVDD:4034 vss 0.413659f
cDVDD/289 DVDD:4033 vss 33.0042f
cDVDD/290 DVDD:4024 vss 0.363814f
cDVDD/291 DVDD:4014 vss 0.363814f
cDVDD/292 DVDD:4004 vss 0.363814f
cDVDD/293 DVDD:3994 vss 1.18857f
cDVDD/294 DVDD:3990 vss 0.101946f
cDVDD/295 DVDD:3986 vss 0.101946f
cDVDD/296 DVDD:3982 vss 0.101946f
cDVDD/297 DVDD:3980 vss 0.0659035f
cDVDD/298 X46/D0:neg vss 3.92581f
cDVDD/299 DVDD:2096 vss 4.85831f
cDVDD/300 DVDD:1943 vss 5.10919f
cDVDD/301 DVDD:1866 vss 4.33753f
cDVDD/302 DVDD:1787 vss 4.33755f
cDVDD/303 DVDD:1329 vss 0.810015f
cDVDD/304 DVDD:1179 vss 0.811144f
cDVDD/305 DVDD:1029 vss 0.810015f
cDVDD/306 X46/X30/D0:neg vss 10.6063f
cDVDD/307 DVDD:795 vss 7.07648f
cDVDD/308 DVDD:735 vss 4.85733f
cDVDD/309 DVDD:709 vss 0.218143f
cDVDD/310 DVDD:707 vss 4.73609f
cDVDD/311 DVDD:702 vss 7.06478f
cDVDD/312 DVDD:642 vss 0.167938f
cDVDD/313 DVDD:616 vss 0.218143f
cDVDD/314 DVDD:614 vss 0.27697f
cDVDD/315 DVDD:555 vss 3.00823f
cDVDD/316 DVDD:496 vss 2.96288f
cDVDD/317 X30/D0:neg vss 2.43325f
cDVDD/318 X29/D0:neg vss 2.50438f
cDVDD/319 X28/D0:neg vss 2.50438f
cDVDD/320 X27/D0:neg vss 2.43328f
cDVDD/321 DVDD:57 vss 3.55208f
cDVDD/322 DVDD:55 vss 3.43032f
cDVDD/323 DVDD:33 vss 0.0934477f
cDVDD/324 DVDD:31 vss 3.66223f
cDVDD/325 DVDD:28 vss 0.0936695f
cDVDD/326 DVDD:26 vss 3.4315f
cDVDD/327 DVDD:4 vss 0.0934477f
cDVDD/328 DVDD:2 vss 0.150889f
rDVDD/331 DVDD:16206 DVDD:16209 0.0113097
rDVDD/332 DVDD:16205 DVDD:16209 0.069002
rDVDD/333 DVDD:16205 DVDD:16206 0.0576923
rDVDD/334 DVDD:16200 DVDD:16206 0.0084823
rDVDD/335 DVDD:16199 DVDD:16200 0.0112876
rDVDD/336 DVDD:16195 DVDD:16200 0.0452389
rDVDD/337 DVDD:16194 DVDD:16195 0.0140333
rDVDD/338 DVDD:16176 DVDD:16177 0.00701663
rDVDD/339 DVDD:16163 DVDD 0.0118673
rDVDD/340 DVDD:16163 DVDD 0.0259005
rDVDD/341 DVDD:16157 DVDD:16160 0.0112105
rDVDD/342 DVDD:16156 DVDD:16160 0.0643601
rDVDD/343 DVDD:16156 DVDD:16157 0.0531496
rDVDD/344 DVDD:16151 DVDD:16157 0.0112105
rDVDD/345 DVDD:16150 DVDD:16151 0.0108521
rDVDD/346 DVDD:16147 DVDD:16151 0.0448421
rDVDD/347 DVDD:16146 DVDD:16147 0.0136364
rDVDD/348 DVDD:16130 DVDD:16131 0.00681818
rDVDD/349 DVDD:16117 DVDD 0.0117632
rDVDD/350 DVDD:16117 DVDD 0.0253995
rDVDD/351 DVDD:16083 DVDD:16084 0.143617
rDVDD/352 DVDD:16080 DVDD:16084 0.0365143
rDVDD/353 DVDD:16079 DVDD:16080 0.143617
rDVDD/354 DVDD:16077 DVDD:16080 0.00912857
rDVDD/355 DVDD:16076 DVDD:16079 0.00912857
rDVDD/356 DVDD:16076 DVDD:16077 0.143617
rDVDD/357 DVDD:16073 DVDD:16077 0.0456429
rDVDD/358 DVDD:16072 DVDD:16073 0.143617
rDVDD/359 DVDD:16068 DVDD:16073 0.0365143
rDVDD/360 DVDD:16067 DVDD:16072 0.0365143
rDVDD/361 DVDD:16067 DVDD:16068 0.0718085
rDVDD/362 DVDD:16065 DVDD:16068 0.0456429
rDVDD/363 DVDD:16064 DVDD:16067 0.0456429
rDVDD/364 DVDD:16064 DVDD:16065 0.143617
rDVDD/365 DVDD:16055 DVDD:16058 0.0456429
rDVDD/366 DVDD:16050 DVDD:16055 0.0456429
rDVDD/367 DVDD:16041 DVDD:16046 0.0365143
rDVDD/368 DVDD:16038 DVDD:16041 0.0456429
rDVDD/369 DVDD:16035 DVDD:16038 0.0365143
rDVDD/370 DVDD:16032 DVDD:16035 0.00912857
rDVDD/371 DVDD:16023 DVDD:16028 0.0365143
rDVDD/372 DVDD:16023 DVDD:16024 0.0718085
rDVDD/373 DVDD:16021 DVDD:16024 0.0456429
rDVDD/374 DVDD:16020 DVDD:16023 0.0456429
rDVDD/375 DVDD:16020 DVDD:16021 0.143617
rDVDD/376 DVDD:16015 DVDD:16020 0.0365143
rDVDD/377 DVDD:16006 DVDD:16011 0.0456429
rDVDD/378 DVDD:16002 DVDD:16003 0.143617
rDVDD/379 DVDD:15998 DVDD 0.0438429
rDVDD/380 DVDD:15998 DVDD:16003 0.0365143
rDVDD/381 DVDD:15997 DVDD:16002 0.0365143
rDVDD/382 DVDD:15997 DVDD:15998 0.0718085
rDVDD/383 DVDD:15990 DVDD 0.0018
rDVDD/384 DVDD:15989 DVDD 0.0018
rDVDD/385 DVDD:15989 DVDD:15990 0.143617
rDVDD/386 DVDD:15986 DVDD:15990 0.0365143
rDVDD/387 DVDD:15986 DVDD:15989 0.180131
rDVDD/388 DVDD:15976 DVDD:15977 0.143617
rDVDD/389 DVDD:15973 DVDD:15977 0.0365143
rDVDD/390 DVDD:15972 DVDD:15973 0.143617
rDVDD/391 DVDD:15970 DVDD:15973 0.00912857
rDVDD/392 DVDD:15969 DVDD:15972 0.00912857
rDVDD/393 DVDD:15969 DVDD:15970 0.143617
rDVDD/394 DVDD:15966 DVDD:15970 0.0456429
rDVDD/395 DVDD:15965 DVDD:15966 0.143617
rDVDD/396 DVDD:15961 DVDD:15966 0.0365143
rDVDD/397 DVDD:15960 DVDD:15965 0.0365143
rDVDD/398 DVDD:15960 DVDD:15961 0.0718085
rDVDD/399 DVDD:15958 DVDD:15961 0.0456429
rDVDD/400 DVDD:15957 DVDD:15960 0.0456429
rDVDD/401 DVDD:15957 DVDD:15958 0.143617
rDVDD/402 DVDD:15948 DVDD:15951 0.0456429
rDVDD/403 DVDD:15943 DVDD:15948 0.0456429
rDVDD/404 DVDD:15934 DVDD:15939 0.0365143
rDVDD/405 DVDD:15931 DVDD:15934 0.0456429
rDVDD/406 DVDD:15928 DVDD:15931 0.0365143
rDVDD/407 DVDD:15925 DVDD:15928 0.00912857
rDVDD/408 DVDD:15916 DVDD:15921 0.0365143
rDVDD/409 DVDD:15916 DVDD:15917 0.0718085
rDVDD/410 DVDD:15914 DVDD:15917 0.0456429
rDVDD/411 DVDD:15913 DVDD:15916 0.0456429
rDVDD/412 DVDD:15913 DVDD:15914 0.143617
rDVDD/413 DVDD:15908 DVDD:15913 0.0365143
rDVDD/414 DVDD:15899 DVDD:15904 0.0456429
rDVDD/415 DVDD:15895 DVDD:15896 0.143617
rDVDD/416 DVDD:15891 DVDD 0.0438429
rDVDD/417 DVDD:15891 DVDD:15896 0.0365143
rDVDD/418 DVDD:15890 DVDD:15895 0.0365143
rDVDD/419 DVDD:15890 DVDD:15891 0.0718085
rDVDD/420 DVDD:15884 DVDD 0.0018
rDVDD/421 DVDD:15883 DVDD 0.0018
rDVDD/422 DVDD:15883 DVDD:15884 0.143617
rDVDD/423 DVDD:15880 DVDD:15884 0.0365143
rDVDD/424 DVDD:15880 DVDD:15883 0.180131
rDVDD/425 DVDD:15870 DVDD:15871 0.143617
rDVDD/426 DVDD:15867 DVDD:15871 0.0365143
rDVDD/427 DVDD:15866 DVDD:15867 0.143617
rDVDD/428 DVDD:15864 DVDD:15867 0.00912857
rDVDD/429 DVDD:15863 DVDD:15866 0.00912857
rDVDD/430 DVDD:15863 DVDD:15864 0.143617
rDVDD/431 DVDD:15860 DVDD:15864 0.0456429
rDVDD/432 DVDD:15859 DVDD:15860 0.143617
rDVDD/433 DVDD:15855 DVDD:15860 0.0365143
rDVDD/434 DVDD:15854 DVDD:15859 0.0365143
rDVDD/435 DVDD:15854 DVDD:15855 0.0718085
rDVDD/436 DVDD:15852 DVDD:15855 0.0456429
rDVDD/437 DVDD:15851 DVDD:15854 0.0456429
rDVDD/438 DVDD:15851 DVDD:15852 0.143617
rDVDD/439 DVDD:15842 DVDD:15845 0.0456429
rDVDD/440 DVDD:15837 DVDD:15842 0.0456429
rDVDD/441 DVDD:15828 DVDD:15833 0.0365143
rDVDD/442 DVDD:15825 DVDD:15828 0.0456429
rDVDD/443 DVDD:15822 DVDD:15825 0.0365143
rDVDD/444 DVDD:15819 DVDD:15822 0.00912857
rDVDD/445 DVDD:15810 DVDD:15815 0.0365143
rDVDD/446 DVDD:15810 DVDD:15811 0.0718085
rDVDD/447 DVDD:15808 DVDD:15811 0.0456429
rDVDD/448 DVDD:15807 DVDD:15810 0.0456429
rDVDD/449 DVDD:15807 DVDD:15808 0.143617
rDVDD/450 DVDD:15802 DVDD:15807 0.0365143
rDVDD/451 DVDD:15793 DVDD:15798 0.0456429
rDVDD/452 DVDD:15789 DVDD:15790 0.143617
rDVDD/453 DVDD:15785 DVDD 0.0438429
rDVDD/454 DVDD:15785 DVDD:15790 0.0365143
rDVDD/455 DVDD:15784 DVDD:15789 0.0365143
rDVDD/456 DVDD:15784 DVDD:15785 0.0718085
rDVDD/457 DVDD:15777 DVDD 0.0018
rDVDD/458 DVDD:15776 DVDD 0.0018
rDVDD/459 DVDD:15776 DVDD:15777 0.143617
rDVDD/460 DVDD:15773 DVDD:15777 0.0365143
rDVDD/461 DVDD:15773 DVDD:15776 0.180131
rDVDD/462 DVDD:15741 DVDD:15749 1.5
rDVDD/463 DVDD:15740 DVDD:15741 1.5
rDVDD/464 DVDD:15737 DVDD:15743 2.25
rDVDD/465 DVDD:15737 DVDD:15741 0.0159429
rDVDD/466 DVDD:15737 DVDD:15997 0.01485
rDVDD/467 DVDD:15734 DVDD 0.00507857
rDVDD/468 DVDD:15734 DVDD:15743 1.5
rDVDD/469 DVDD:15734 DVDD:15741 0.00797143
rDVDD/470 DVDD:15733 DVDD:15737 2.25
rDVDD/471 DVDD:15733 DVDD:15734 1.5
rDVDD/472 DVDD:15724 DVDD:15729 0.0233473
rDVDD/473 DVDD:15722 DVDD:15768 0.28125
rDVDD/474 DVDD:15722 DVDD:15729 1.5
rDVDD/475 DVDD:15721 DVDD:15722 1.5
rDVDD/476 DVDD:15718 DVDD:15724 2.25
rDVDD/477 DVDD:15718 DVDD:15722 0.00489474
rDVDD/478 DVDD:15715 DVDD 0.00155921
rDVDD/479 DVDD:15715 DVDD:15724 1.5
rDVDD/480 DVDD:15715 DVDD:15722 0.00244737
rDVDD/481 DVDD:15714 DVDD:15718 2.25
rDVDD/482 DVDD:15714 DVDD:15715 1.5
rDVDD/483 DVDD:15702 DVDD:15763 0.28125
rDVDD/484 DVDD:15702 DVDD:15757 0.28125
rDVDD/485 DVDD:15702 DVDD:15753 0.28125
rDVDD/486 DVDD:15702 DVDD:15710 1.5
rDVDD/487 DVDD:15701 DVDD:15702 1.5
rDVDD/488 DVDD:15699 DVDD:15704 2.25
rDVDD/489 DVDD:15699 DVDD:15702 0.00178846
rDVDD/490 DVDD:15696 DVDD 0.000569712
rDVDD/491 DVDD:15696 DVDD:15704 1.5
rDVDD/492 DVDD:15696 DVDD:15702 0.000894231
rDVDD/493 DVDD:15695 DVDD:15701 0.0233473
rDVDD/494 DVDD:15695 DVDD:15699 2.25
rDVDD/495 DVDD:15695 DVDD:15696 1.5
rDVDD/496 DVDD:15691 DVDD:15695 0.921797
rDVDD/497 DVDD:15686 DVDD:15691 0.0233473
rDVDD/498 DVDD:15684 DVDD:15691 1.5
rDVDD/499 DVDD:15683 DVDD:15684 1.5
rDVDD/500 DVDD:15681 DVDD:15686 2.25
rDVDD/501 DVDD:15681 DVDD:15684 0.0159429
rDVDD/502 DVDD:15681 DVDD:15784 0.01485
rDVDD/503 DVDD:15678 DVDD 0.00507857
rDVDD/504 DVDD:15678 DVDD:15686 1.5
rDVDD/505 DVDD:15678 DVDD:15684 0.00797143
rDVDD/506 DVDD:15677 DVDD:15683 0.0233473
rDVDD/507 DVDD:15677 DVDD:15681 2.25
rDVDD/508 DVDD:15677 DVDD:15678 1.5
rDVDD/509 DVDD:15662 DVDD:16079 0.0225643
rDVDD/510 DVDD:15662 DVDD:15669 0.321429
rDVDD/511 DVDD:15662 DVDD:15665 0.3
rDVDD/512 DVDD:15662 DVDD:16083 0.01395
rDVDD/513 DVDD:15661 DVDD:15662 0.3
rDVDD/514 DVDD:15633 DVDD:15972 0.0225643
rDVDD/515 DVDD:15633 DVDD:15641 0.321429
rDVDD/516 DVDD:15633 DVDD:15637 0.3
rDVDD/517 DVDD:15633 DVDD:15976 0.01395
rDVDD/518 DVDD:15632 DVDD:15633 0.3
rDVDD/519 DVDD:15597 DVDD:15600 0.043937
rDVDD/520 DVDD:15591 DVDD:16199 0.00133407
rDVDD/521 DVDD:15591 DVDD:15625 0.75
rDVDD/522 DVDD:15591 DVDD:15621 0.3
rDVDD/523 DVDD:15591 DVDD:15616 0.3
rDVDD/524 DVDD:15591 DVDD:15611 0.28125
rDVDD/525 DVDD:15591 DVDD:15600 0.28125
rDVDD/526 DVDD:15591 DVDD:15597 0.75
rDVDD/527 DVDD:15591 DVDD:16205 0.00714823
rDVDD/528 DVDD:15590 DVDD:15591 0.3
rDVDD/529 DVDD:15536 DVDD:15539 0.0659055
rDVDD/530 DVDD:15534 DVDD:16150 0.004125
rDVDD/531 DVDD:15534 DVDD:15569 0.346154
rDVDD/532 DVDD:15534 DVDD:15565 0.3
rDVDD/533 DVDD:15534 DVDD:15557 0.3
rDVDD/534 DVDD:15534 DVDD:15553 0.3
rDVDD/535 DVDD:15534 DVDD:15548 0.3
rDVDD/536 DVDD:15534 DVDD:15543 0.28125
rDVDD/537 DVDD:15534 DVDD:15539 0.75
rDVDD/538 DVDD:15534 DVDD:15536 0.3
rDVDD/539 DVDD:15534 DVDD:16156 0.00708553
rDVDD/540 DVDD:15533 DVDD:15536 0.087874
rDVDD/541 DVDD:15533 DVDD:15534 0.3
rDVDD/542 DVDD:15511 DVDD:15514 0.0659055
rDVDD/543 DVDD:15484 DVDD:15487 0.0659055
rDVDD/544 DVDD:15477 DVDD:15480 0.087874
rDVDD/545 DVDD:15474 DVDD:15477 0.127559
rDVDD/546 DVDD:15471 DVDD:15474 0.043937
rDVDD/547 DVDD:15468 DVDD:15471 0.0659055
rDVDD/548 DVDD:15465 DVDD:15468 0.087874
rDVDD/549 DVDD:15462 DVDD:15465 0.0659055
rDVDD/550 DVDD:15459 DVDD:15462 0.087874
rDVDD/551 DVDD:15456 DVDD:15459 0.087874
rDVDD/552 DVDD:15453 DVDD:15456 0.127559
rDVDD/553 DVDD:15450 DVDD:15453 0.087874
rDVDD/554 DVDD:15447 DVDD:15450 0.0659055
rDVDD/555 DVDD:15444 DVDD:15447 0.087874
rDVDD/556 DVDD:15441 DVDD:15444 0.0659055
rDVDD/557 DVDD:15438 DVDD:15441 0.087874
rDVDD/558 DVDD:15436 DVDD:15523 0.346154
rDVDD/559 DVDD:15436 DVDD:15519 0.3
rDVDD/560 DVDD:15436 DVDD:15514 0.3
rDVDD/561 DVDD:15436 DVDD:15511 0.3
rDVDD/562 DVDD:15436 DVDD:15504 0.3
rDVDD/563 DVDD:15436 DVDD:15499 0.28125
rDVDD/564 DVDD:15436 DVDD:15495 0.9
rDVDD/565 DVDD:15436 DVDD:15491 0.3
rDVDD/566 DVDD:15436 DVDD:15487 0.3
rDVDD/567 DVDD:15436 DVDD:15484 0.3
rDVDD/568 DVDD:15436 DVDD:15480 0.3
rDVDD/569 DVDD:15436 DVDD:15477 0.3
rDVDD/570 DVDD:15436 DVDD:15474 0.28125
rDVDD/571 DVDD:15436 DVDD:15471 0.9
rDVDD/572 DVDD:15436 DVDD:15468 0.3
rDVDD/573 DVDD:15436 DVDD:15465 0.3
rDVDD/574 DVDD:15436 DVDD:15462 0.3
rDVDD/575 DVDD:15436 DVDD:15459 0.3
rDVDD/576 DVDD:15436 DVDD:15456 0.3
rDVDD/577 DVDD:15436 DVDD:15453 0.28125
rDVDD/578 DVDD:15436 DVDD:15450 0.346154
rDVDD/579 DVDD:15436 DVDD:15447 0.3
rDVDD/580 DVDD:15436 DVDD:15444 0.3
rDVDD/581 DVDD:15436 DVDD:15441 0.3
rDVDD/582 DVDD:15436 DVDD:15438 0.3
rDVDD/583 DVDD:15435 DVDD:15438 0.087874
rDVDD/584 DVDD:15435 DVDD:15436 0.3
rDVDD/585 DVDD:15426 DVDD:15866 0.0225643
rDVDD/586 DVDD:15426 DVDD:15435 0.54786
rDVDD/587 DVDD:15426 DVDD:15870 0.01395
rDVDD/588 DVDD:15416 DVDD:16072 0.00430714
rDVDD/589 DVDD:15416 DVDD:16076 0.0413357
rDVDD/590 DVDD:15412 DVDD:15416 1.40194
rDVDD/591 DVDD:15409 DVDD:15412 0.0659055
rDVDD/592 DVDD:15407 DVDD:15965 0.00430714
rDVDD/593 DVDD:15407 DVDD:15412 0.321429
rDVDD/594 DVDD:15407 DVDD:15409 0.3
rDVDD/595 DVDD:15407 DVDD:15969 0.0413357
rDVDD/596 DVDD:15406 DVDD:15409 0.087874
rDVDD/597 DVDD:15406 DVDD:15407 0.3
rDVDD/598 DVDD:15404 DVDD:16199 0.0188164
rDVDD/599 DVDD:15403 DVDD:15406 0.369213
rDVDD/600 DVDD:15403 DVDD:15404 2.25
rDVDD/601 DVDD:15400 DVDD:15403 0.043937
rDVDD/602 DVDD:15397 DVDD:15400 0.0659055
rDVDD/603 DVDD:15394 DVDD:15397 0.087874
rDVDD/604 DVDD:15391 DVDD:15394 0.085748
rDVDD/605 DVDD:15388 DVDD:15391 0.087874
rDVDD/606 DVDD:15385 DVDD:15388 0.0659055
rDVDD/607 DVDD:15382 DVDD:15385 0.129685
rDVDD/608 DVDD:15379 DVDD:15382 0.0659055
rDVDD/609 DVDD:15376 DVDD:15379 0.0659055
rDVDD/610 DVDD:15374 DVDD:16194 0.0239535
rDVDD/611 DVDD:15374 DVDD:15400 0.346154
rDVDD/612 DVDD:15374 DVDD:15397 0.346154
rDVDD/613 DVDD:15374 DVDD:15394 0.346154
rDVDD/614 DVDD:15374 DVDD:15391 0.346154
rDVDD/615 DVDD:15374 DVDD:15388 0.346154
rDVDD/616 DVDD:15374 DVDD:15385 0.346154
rDVDD/617 DVDD:15374 DVDD:15382 0.346154
rDVDD/618 DVDD:15374 DVDD:15379 0.346154
rDVDD/619 DVDD:15374 DVDD:15376 0.346154
rDVDD/620 DVDD:15374 DVDD:15404 0.00246903
rDVDD/621 DVDD:15373 DVDD:15376 0.0659055
rDVDD/622 DVDD:15373 DVDD:15374 0.346154
rDVDD/623 DVDD:15370 DVDD:15373 1.26248
rDVDD/624 DVDD:15367 DVDD:15370 0.0659055
rDVDD/625 DVDD:15364 DVDD:15367 0.087874
rDVDD/626 DVDD:15361 DVDD:15364 0.0659055
rDVDD/627 DVDD:15358 DVDD:15361 0.087874
rDVDD/628 DVDD:15355 DVDD:15358 0.0659055
rDVDD/629 DVDD:15352 DVDD:15355 0.087874
rDVDD/630 DVDD:15349 DVDD:15352 0.106654
rDVDD/631 DVDD:15346 DVDD:15349 0.087874
rDVDD/632 DVDD:15344 DVDD:16146 0.0265461
rDVDD/633 DVDD:15344 DVDD:15370 0.321429
rDVDD/634 DVDD:15344 DVDD:15367 0.321429
rDVDD/635 DVDD:15344 DVDD:15364 0.321429
rDVDD/636 DVDD:15344 DVDD:15361 0.321429
rDVDD/637 DVDD:15344 DVDD:15358 0.321429
rDVDD/638 DVDD:15344 DVDD:15355 0.321429
rDVDD/639 DVDD:15344 DVDD:15352 0.321429
rDVDD/640 DVDD:15344 DVDD:15349 0.321429
rDVDD/641 DVDD:15344 DVDD:15346 0.321429
rDVDD/642 DVDD:15344 DVDD:16150 0.0182961
rDVDD/643 DVDD:15343 DVDD:15346 0.0659055
rDVDD/644 DVDD:15343 DVDD:15344 0.321429
rDVDD/645 DVDD:15340 DVDD:15343 0.36815
rDVDD/646 DVDD:15337 DVDD:15340 0.0659055
rDVDD/647 DVDD:15334 DVDD:15337 0.087874
rDVDD/648 DVDD:15331 DVDD:15334 0.0659055
rDVDD/649 DVDD:15328 DVDD:15331 0.087874
rDVDD/650 DVDD:15325 DVDD:15328 0.0659055
rDVDD/651 DVDD:15322 DVDD:15325 0.087874
rDVDD/652 DVDD:15319 DVDD:15322 0.105591
rDVDD/653 DVDD:15316 DVDD:15319 0.087874
rDVDD/654 DVDD:15313 DVDD:15316 0.0659055
rDVDD/655 DVDD:15310 DVDD:15313 0.087874
rDVDD/656 DVDD:15307 DVDD:15310 0.0659055
rDVDD/657 DVDD:15304 DVDD:15307 0.087874
rDVDD/658 DVDD:15301 DVDD:15304 0.0659055
rDVDD/659 DVDD:15298 DVDD:15301 0.105591
rDVDD/660 DVDD:15295 DVDD:15298 0.087874
rDVDD/661 DVDD:15292 DVDD:15295 0.087874
rDVDD/662 DVDD:15289 DVDD:15292 0.0659055
rDVDD/663 DVDD:15286 DVDD:15289 0.087874
rDVDD/664 DVDD:15283 DVDD:15286 0.0659055
rDVDD/665 DVDD:15280 DVDD:15283 0.087874
rDVDD/666 DVDD:15277 DVDD:15280 0.083622
rDVDD/667 DVDD:15274 DVDD:15277 0.109843
rDVDD/668 DVDD:15271 DVDD:15274 0.0659055
rDVDD/669 DVDD:15268 DVDD:15271 0.087874
rDVDD/670 DVDD:15265 DVDD:15268 0.0659055
rDVDD/671 DVDD:15259 DVDD:15340 0.75
rDVDD/672 DVDD:15259 DVDD:15337 0.321429
rDVDD/673 DVDD:15259 DVDD:15334 0.321429
rDVDD/674 DVDD:15259 DVDD:15331 0.321429
rDVDD/675 DVDD:15259 DVDD:15328 0.321429
rDVDD/676 DVDD:15259 DVDD:15325 0.321429
rDVDD/677 DVDD:15259 DVDD:15322 0.321429
rDVDD/678 DVDD:15259 DVDD:15319 0.321429
rDVDD/679 DVDD:15259 DVDD:15316 0.321429
rDVDD/680 DVDD:15259 DVDD:15313 0.321429
rDVDD/681 DVDD:15259 DVDD:15310 0.321429
rDVDD/682 DVDD:15259 DVDD:15307 0.321429
rDVDD/683 DVDD:15259 DVDD:15304 0.321429
rDVDD/684 DVDD:15259 DVDD:15301 0.321429
rDVDD/685 DVDD:15259 DVDD:15298 0.321429
rDVDD/686 DVDD:15259 DVDD:15295 0.321429
rDVDD/687 DVDD:15259 DVDD:15292 0.321429
rDVDD/688 DVDD:15259 DVDD:15289 0.321429
rDVDD/689 DVDD:15259 DVDD:15286 0.321429
rDVDD/690 DVDD:15259 DVDD:15283 0.321429
rDVDD/691 DVDD:15259 DVDD:15280 0.321429
rDVDD/692 DVDD:15259 DVDD:15277 0.321429
rDVDD/693 DVDD:15259 DVDD:15274 0.321429
rDVDD/694 DVDD:15259 DVDD:15271 0.321429
rDVDD/695 DVDD:15259 DVDD:15268 0.321429
rDVDD/696 DVDD:15259 DVDD:15265 0.321429
rDVDD/697 DVDD:15259 DVDD:15261 0.321429
rDVDD/698 DVDD:15259 DVDD:15436 0.00819231
rDVDD/699 DVDD:15258 DVDD:15261 0.0659055
rDVDD/700 DVDD:15258 DVDD:15259 0.321429
rDVDD/701 DVDD:15255 DVDD:15258 0.412087
rDVDD/702 DVDD:15252 DVDD:15255 0.0659055
rDVDD/703 DVDD:15250 DVDD:15859 0.00430714
rDVDD/704 DVDD:15250 DVDD:15255 0.321429
rDVDD/705 DVDD:15250 DVDD:15252 0.3
rDVDD/706 DVDD:15250 DVDD:15863 0.0413357
rDVDD/707 DVDD:15249 DVDD:15252 0.087874
rDVDD/708 DVDD:15249 DVDD:15250 0.3
rDVDD/709 DVDD:15203 DVDD:16058 0.0134357
rDVDD/710 DVDD:15203 DVDD:15211 0.321429
rDVDD/711 DVDD:15203 DVDD:15207 0.3
rDVDD/712 DVDD:15203 DVDD:16064 0.0230786
rDVDD/713 DVDD:15202 DVDD:15203 0.3
rDVDD/714 DVDD:15174 DVDD:15951 0.0134357
rDVDD/715 DVDD:15174 DVDD:15182 0.321429
rDVDD/716 DVDD:15174 DVDD:15178 0.3
rDVDD/717 DVDD:15174 DVDD:15957 0.0230786
rDVDD/718 DVDD:15173 DVDD:15174 0.3
rDVDD/719 DVDD:15136 DVDD:15139 0.043937
rDVDD/720 DVDD:15133 DVDD:15136 0.0659055
rDVDD/721 DVDD:15129 DVDD:16188 0.0352633
rDVDD/722 DVDD:15129 DVDD:15166 0.75
rDVDD/723 DVDD:15129 DVDD:15162 0.3
rDVDD/724 DVDD:15129 DVDD:15157 0.3
rDVDD/725 DVDD:15129 DVDD:15152 0.28125
rDVDD/726 DVDD:15129 DVDD:15147 0.346154
rDVDD/727 DVDD:15129 DVDD:15143 0.3
rDVDD/728 DVDD:15129 DVDD:15139 0.28125
rDVDD/729 DVDD:15129 DVDD:15136 0.75
rDVDD/730 DVDD:15129 DVDD:15133 0.3
rDVDD/731 DVDD:15129 DVDD:16194 0.00997566
rDVDD/732 DVDD:15128 DVDD:15129 0.3
rDVDD/733 DVDD:15073 DVDD:15076 0.0659055
rDVDD/734 DVDD:15071 DVDD:16140 0.0377566
rDVDD/735 DVDD:15071 DVDD:15107 0.346154
rDVDD/736 DVDD:15071 DVDD:15103 0.3
rDVDD/737 DVDD:15071 DVDD:15098 0.3
rDVDD/738 DVDD:15071 DVDD:15094 0.3
rDVDD/739 DVDD:15071 DVDD:15090 0.3
rDVDD/740 DVDD:15071 DVDD:15085 0.3
rDVDD/741 DVDD:15071 DVDD:15080 0.28125
rDVDD/742 DVDD:15071 DVDD:15076 0.75
rDVDD/743 DVDD:15071 DVDD:15073 0.3
rDVDD/744 DVDD:15071 DVDD:16146 0.00708553
rDVDD/745 DVDD:15070 DVDD:15073 0.087874
rDVDD/746 DVDD:15070 DVDD:15071 0.3
rDVDD/747 DVDD:15048 DVDD:15051 0.0659055
rDVDD/748 DVDD:15045 DVDD:15048 0.087874
rDVDD/749 DVDD:15011 DVDD:15014 0.087874
rDVDD/750 DVDD:15004 DVDD:15007 0.043937
rDVDD/751 DVDD:15001 DVDD:15004 0.0659055
rDVDD/752 DVDD:14993 DVDD:14996 0.0659055
rDVDD/753 DVDD:14972 DVDD:14975 0.0659055
rDVDD/754 DVDD:14965 DVDD:14968 0.0659055
rDVDD/755 DVDD:14959 DVDD:15060 0.346154
rDVDD/756 DVDD:14959 DVDD:15055 0.3
rDVDD/757 DVDD:14959 DVDD:15051 0.3
rDVDD/758 DVDD:14959 DVDD:15048 0.3
rDVDD/759 DVDD:14959 DVDD:15045 0.3
rDVDD/760 DVDD:14959 DVDD:15040 0.3
rDVDD/761 DVDD:14959 DVDD:15035 0.28125
rDVDD/762 DVDD:14959 DVDD:15031 0.9
rDVDD/763 DVDD:14959 DVDD:15027 0.3
rDVDD/764 DVDD:14959 DVDD:15022 0.3
rDVDD/765 DVDD:14959 DVDD:15018 0.3
rDVDD/766 DVDD:14959 DVDD:15014 0.3
rDVDD/767 DVDD:14959 DVDD:15011 0.3
rDVDD/768 DVDD:14959 DVDD:15007 0.28125
rDVDD/769 DVDD:14959 DVDD:15004 0.9
rDVDD/770 DVDD:14959 DVDD:15001 0.3
rDVDD/771 DVDD:14959 DVDD:14996 0.3
rDVDD/772 DVDD:14959 DVDD:14993 0.3
rDVDD/773 DVDD:14959 DVDD:14988 0.3
rDVDD/774 DVDD:14959 DVDD:14984 0.3
rDVDD/775 DVDD:14959 DVDD:14980 0.28125
rDVDD/776 DVDD:14959 DVDD:14975 0.346154
rDVDD/777 DVDD:14959 DVDD:14972 0.3
rDVDD/778 DVDD:14959 DVDD:14968 0.3
rDVDD/779 DVDD:14959 DVDD:14965 0.3
rDVDD/780 DVDD:14959 DVDD:14961 0.3
rDVDD/781 DVDD:14959 DVDD:15259 0.0122885
rDVDD/782 DVDD:14958 DVDD:14961 0.087874
rDVDD/783 DVDD:14958 DVDD:14959 0.3
rDVDD/784 DVDD:14955 DVDD:14958 0.412087
rDVDD/785 DVDD:14952 DVDD:14955 0.0659055
rDVDD/786 DVDD:14950 DVDD:15845 0.0134357
rDVDD/787 DVDD:14950 DVDD:14955 0.321429
rDVDD/788 DVDD:14950 DVDD:14952 0.3
rDVDD/789 DVDD:14950 DVDD:15851 0.0230786
rDVDD/790 DVDD:14949 DVDD:14952 0.087874
rDVDD/791 DVDD:14949 DVDD:14950 0.3
rDVDD/792 DVDD:14924 DVDD:16046 0.00430714
rDVDD/793 DVDD:14924 DVDD:14932 0.321429
rDVDD/794 DVDD:14924 DVDD:14928 0.3
rDVDD/795 DVDD:14924 DVDD:16050 0.0413357
rDVDD/796 DVDD:14923 DVDD:14924 0.3
rDVDD/797 DVDD:14895 DVDD:15939 0.00430714